

        *** GPGPU-Sim Simulator Version 3.2.2  [build 17315] ***


GPGPU-Sim PTX: simulation mode 0 (can change with PTX_SIM_MODE_FUNC environment variable:
               1=functional simulation only, 0=detailed performance simulator)
GPGPU-Sim: Configuration options:

-network_mode                           1 # Interconnection network mode
-inter_config_file   config_fermi_islip.icnt # Interconnection network config file
-gpgpu_ptx_use_cuobjdump                    1 # Use cuobjdump to extract ptx and sass from binaries
-gpgpu_experimental_lib_support                    0 # Try to extract code from cuda libraries [Broken because of unknown cudaGetExportTable]
-gpgpu_ptx_convert_to_ptxplus                    1 # Convert SASS (native ISA) to ptxplus and run ptxplus
-gpgpu_ptx_force_max_capability                   20 # Force maximum compute capability
-gpgpu_ptx_inst_debug_to_file                    0 # Dump executed instructions' debug information to file
-gpgpu_ptx_inst_debug_file       inst_debug.txt # Executed instructions' debug output file
-gpgpu_ptx_inst_debug_thread_uid                    1 # Thread UID for executed instructions' debug output
-gpgpu_simd_model                       1 # 1 = post-dominator
-gpgpu_shader_core_pipeline              1536:32 # shader core pipeline config, i.e., {<nthread>:<warpsize>}
-gpgpu_tex_cache:l1  4:128:24,L:R:m:N,F:128:4,128:2 # per-shader L1 texture cache  (READ-ONLY) config  {<nsets>:<bsize>:<assoc>,<rep>:<wr>:<alloc>:<wr_alloc>,<mshr>:<N>:<merge>,<mq>:<rf>}
-gpgpu_const_cache:l1 64:64:2,L:R:f:N,A:2:32,4 # per-shader L1 constant memory cache  (READ-ONLY) config  {<nsets>:<bsize>:<assoc>,<rep>:<wr>:<alloc>:<wr_alloc>,<mshr>:<N>:<merge>,<mq>} 
-gpgpu_cache:il1     4:128:4,L:R:f:N,A:2:32,4 # shader L1 instruction cache config  {<nsets>:<bsize>:<assoc>,<rep>:<wr>:<alloc>:<wr_alloc>,<mshr>:<N>:<merge>,<mq>} 
-gpgpu_cache:dl1     32:128:4,L:L:m:N,A:32:8,8 # per-shader L1 data cache config  {<nsets>:<bsize>:<assoc>,<rep>:<wr>:<alloc>:<wr_alloc>,<mshr>:<N>:<merge>,<mq> | none}
-gpgpu_cache:dl1PrefL1                 none # per-shader L1 data cache config  {<nsets>:<bsize>:<assoc>,<rep>:<wr>:<alloc>:<wr_alloc>,<mshr>:<N>:<merge>,<mq> | none}
-gpgpu_cache:dl1PreShared                 none # per-shader L1 data cache config  {<nsets>:<bsize>:<assoc>,<rep>:<wr>:<alloc>:<wr_alloc>,<mshr>:<N>:<merge>,<mq> | none}
-gmem_skip_L1D                          0 # global memory access skip L1D cache (implements -Xptxas -dlcm=cg, default=no skip)
-gpgpu_perfect_mem                      0 # enable perfect memory mode (no cache miss)
-n_regfile_gating_group                    4 # group of lanes that should be read/written together)
-gpgpu_clock_gated_reg_file                    0 # enable clock gated reg file for power calculations
-gpgpu_clock_gated_lanes                    0 # enable clock gated lanes for power calculations
-gpgpu_shader_registers                32768 # Number of registers per shader core. Limits number of concurrent CTAs. (default 8192)
-gpgpu_shader_cta                       8 # Maximum number of concurrent CTAs in shader (default 8)
-gpgpu_n_clusters                      14 # number of processing clusters
-gpgpu_n_cores_per_cluster                    1 # number of simd cores per cluster
-gpgpu_n_cluster_ejection_buffer_size                    8 # number of packets in ejection buffer
-gpgpu_n_ldst_response_buffer_size                    2 # number of response packets in ld/st unit ejection buffer
-gpgpu_shmem_size                   16384 # Size of shared memory per shader core (default 16kB)
-gpgpu_shmem_size                   49152 # Size of shared memory per shader core (default 16kB)
-gpgpu_shmem_size_PrefL1                16384 # Size of shared memory per shader core (default 16kB)
-gpgpu_shmem_size_PrefShared                16384 # Size of shared memory per shader core (default 16kB)
-gpgpu_shmem_num_banks                   32 # Number of banks in the shared memory in each shader core (default 16)
-gpgpu_shmem_limited_broadcast                    0 # Limit shared memory to do one broadcast per cycle (default on)
-gpgpu_shmem_warp_parts                    1 # Number of portions a warp is divided into for shared memory bank conflict check 
-gpgpu_warpdistro_shader                   -1 # Specify which shader core to collect the warp size distribution from
-gpgpu_warp_issue_shader                    0 # Specify which shader core to collect the warp issue distribution from
-gpgpu_local_mem_map                    1 # Mapping from local memory space address to simulated GPU physical address space (default = enabled)
-gpgpu_num_reg_banks                   16 # Number of register banks (default = 8)
-gpgpu_reg_bank_use_warp_id                    0 # Use warp ID in mapping registers to banks (default = off)
-gpgpu_operand_collector_num_units_sp                    6 # number of collector units (default = 4)
-gpgpu_operand_collector_num_units_sfu                    8 # number of collector units (default = 4)
-gpgpu_operand_collector_num_units_mem                    2 # number of collector units (default = 2)
-gpgpu_operand_collector_num_units_gen                    0 # number of collector units (default = 0)
-gpgpu_operand_collector_num_in_ports_sp                    2 # number of collector unit in ports (default = 1)
-gpgpu_operand_collector_num_in_ports_sfu                    1 # number of collector unit in ports (default = 1)
-gpgpu_operand_collector_num_in_ports_mem                    1 # number of collector unit in ports (default = 1)
-gpgpu_operand_collector_num_in_ports_gen                    0 # number of collector unit in ports (default = 0)
-gpgpu_operand_collector_num_out_ports_sp                    2 # number of collector unit in ports (default = 1)
-gpgpu_operand_collector_num_out_ports_sfu                    1 # number of collector unit in ports (default = 1)
-gpgpu_operand_collector_num_out_ports_mem                    1 # number of collector unit in ports (default = 1)
-gpgpu_operand_collector_num_out_ports_gen                    0 # number of collector unit in ports (default = 0)
-gpgpu_coalesce_arch                   13 # Coalescing arch (default = 13, anything else is off for now)
-gpgpu_num_sched_per_core                    2 # Number of warp schedulers per core
-gpgpu_max_insn_issue_per_warp                    1 # Max number of instructions that can be issued per warp in one cycle by scheduler
-gpgpu_simt_core_sim_order                    1 # Select the simulation order of cores in a cluster (0=Fix, 1=Round-Robin)
-gpgpu_pipeline_widths        2,1,1,2,1,1,2 # Pipeline widths ID_OC_SP,ID_OC_SFU,ID_OC_MEM,OC_EX_SP,OC_EX_SFU,OC_EX_MEM,EX_WB
-gpgpu_num_sp_units                     2 # Number of SP units (default=1)
-gpgpu_num_sfu_units                    1 # Number of SF units (default=1)
-gpgpu_num_mem_units                    1 # Number if ldst units (default=1) WARNING: not hooked up to anything
-gpgpu_scheduler                      gto # Scheduler configuration: < lrr | gto | two_level_active > If two_level_active:<num_active_warps>:<inner_prioritization>:<outer_prioritization>For complete list of prioritization values see shader.h enum scheduler_prioritization_typeDefault: gto
-gpgpu_dram_scheduler                    1 # 0 = fifo, 1 = FR-FCFS (defaul)
-gpgpu_dram_partition_queues              8:8:8:8 # i2$:$2d:d2$:$2i
-l2_ideal                               0 # Use a ideal L2 cache that always hit
-gpgpu_cache:dl2     64:128:8,L:B:m:W,A:32:4,4:0,32 # unified banked L2 data cache config  {<nsets>:<bsize>:<assoc>,<rep>:<wr>:<alloc>:<wr_alloc>,<mshr>:<N>:<merge>,<mq>}
-gpgpu_cache:dl2_texture_only                    0 # L2 cache used for texture only
-gpgpu_n_mem                            6 # number of memory modules (e.g. memory controllers) in gpu
-gpgpu_n_sub_partition_per_mchannel                    2 # number of memory subpartition in each memory module
-gpgpu_n_mem_per_ctrlr                    2 # number of memory chips per memory controller
-gpgpu_memlatency_stat                    0 # track and display latency statistics 0x2 enables MC, 0x4 enables queue logs
-gpgpu_frfcfs_dram_sched_queue_size                   16 # 0 = unlimited (default); # entries per chip
-gpgpu_dram_return_queue_size                  114 # 0 = unlimited (default); # entries per chip
-gpgpu_dram_buswidth                    4 # default = 4 bytes (8 bytes per cycle at DDR)
-gpgpu_dram_burst_length                    8 # Burst length of each DRAM request (default = 4 data bus cycle)
-dram_data_command_freq_ratio                    4 # Frequency ratio between DRAM data bus and command bus (default = 2 times, i.e. DDR)
-gpgpu_dram_timing_opt nbk=16:CCD=2:RRD=6:RCD=12:RAS=28:RP=12:RC=40: CL=12:WL=4:CDLR=5:WR=12:nbkgrp=4:CCDL=3:RTPL=2 # DRAM timing parameters = {nbk:tCCD:tRRD:tRCD:tRAS:tRP:tRC:CL:WL:tCDLR:tWR:nbkgrp:tCCDL:tRTPL}
-rop_latency                          120 # ROP queue latency (default 85)
-dram_latency                         100 # DRAM latency (default 30)
-gpgpu_mem_addr_mapping dramid@8;00000000.00000000.00000000.00000000.0000RRRR.RRRRRRRR.BBBCCCCB.CCSSSSSS # mapping memory address to dram model {dramid@<start bit>;<memory address map>}
-gpgpu_mem_addr_test                    0 # run sweep test to check address mapping for aliased address
-gpgpu_mem_address_mask                    1 # 0 = old addressing mask, 1 = new addressing mask, 2 = new add. mask + flipped bank sel and chip sel bits
-gpuwattch_xml_file         gpuwattch.xml # GPUWattch XML file
-power_simulation_enabled                    0 # Turn on power simulator (1=On, 0=Off)
-power_per_cycle_dump                    0 # Dump detailed power output each cycle
-power_trace_enabled                    0 # produce a file for the power trace (1=On, 0=Off)
-power_trace_zlevel                     6 # Compression level of the power trace output log (0=no comp, 9=highest)
-steady_power_levels_enabled                    0 # produce a file for the steady power levels (1=On, 0=Off)
-steady_state_definition                  8:4 # allowed deviation:number of samples
-gpgpu_max_cycle                        0 # terminates gpu simulation early (0 = no limit)
-gpgpu_max_insn                         0 # terminates gpu simulation early (0 = no limit)
-gpgpu_max_cta                          0 # terminates gpu simulation early (0 = no limit)
-gpgpu_runtime_stat             5000000:0 # display runtime statistics such as dram utilization {<freq>:<flag>}
-liveness_message_freq                    1 # Minimum number of seconds between simulation liveness messages (0 = always print)
-gpgpu_flush_l1_cache                    0 # Flush L1 cache at the end of each kernel call
-gpgpu_flush_l2_cache                    0 # Flush L2 cache at the end of each kernel call
-gpgpu_deadlock_detect                    1 # Stop the simulation at deadlock (1=on (default), 0=off)
-gpgpu_ptx_instruction_classification                    0 # if enabled will classify ptx instruction types per kernel (Max 255 kernels now)
-gpgpu_ptx_sim_mode                     0 # Select between Performance (default) or Functional simulation (1)
-gpgpu_clock_domains 575.0:575.0:575.0:750.0 # Clock Domain Frequencies in MhZ {<Core Clock>:<ICNT Clock>:<L2 Clock>:<DRAM Clock>}
-gpgpu_max_concurrent_kernel                    8 # maximum kernels that can run concurrently on GPU
-gpgpu_cflog_interval                    0 # Interval between each snapshot in control flow logger
-visualizer_enabled                     0 # Turn on visualizer output (1=On, 0=Off)
-visualizer_outputfile                 NULL # Specifies the output log file for visualizer
-visualizer_zlevel                      6 # Compression level of the visualizer output log (0=no comp, 9=highest)
-trace_enabled                          0 # Turn on traces
-trace_components                    none # comma seperated list of traces to enable. Complete list found in trace_streams.tup. Default none
-trace_sampling_core                    0 # The core which is printed using CORE_DPRINTF. Default 0
-trace_sampling_memory_partition                   -1 # The memory partition which is printed using MEMPART_DPRINTF. Default -1 (i.e. all)
-enable_ptx_file_line_stats                    0 # Turn on PTX source line statistic profiling. (1 = On)
-ptx_line_stats_filename gpgpu_inst_stats.txt # Output file for PTX source line statistics.
-save_embedded_ptx                      0 # saves ptx files embedded in binary as <n>.ptx
-keep                                   0 # keep intermediate files created by GPGPU-Sim when interfacing with external programs
-gpgpu_ptx_save_converted_ptxplus                    1 # Saved converted ptxplus to a file
-ptx_opcode_latency_int         4,13,4,5,145 # Opcode latencies for integers <ADD,MAX,MUL,MAD,DIV>Default 1,1,19,25,145
-ptx_opcode_latency_fp          4,13,4,5,39 # Opcode latencies for single precision floating points <ADD,MAX,MUL,MAD,DIV>Default 1,1,1,1,30
-ptx_opcode_latency_dp         8,19,8,8,330 # Opcode latencies for double precision floating points <ADD,MAX,MUL,MAD,DIV>Default 8,8,8,8,335
-ptx_opcode_initiation_int            1,2,2,1,8 # Opcode initiation intervals for integers <ADD,MAX,MUL,MAD,DIV>Default 1,1,4,4,32
-ptx_opcode_initiation_fp            1,2,1,1,4 # Opcode initiation intervals for single precision floating points <ADD,MAX,MUL,MAD,DIV>Default 1,1,1,1,5
-ptx_opcode_initiation_dp         8,16,8,8,130 # Opcode initiation intervals for double precision floating points <ADD,MAX,MUL,MAD,DIV>Default 8,8,8,8,130
DRAM Timing Options:
nbk                                    16 # number of banks
CCD                                     2 # column to column delay
RRD                                     6 # minimal delay between activation of rows in different banks
RCD                                    12 # row to column delay
RAS                                    28 # time needed to activate row
RP                                     12 # time needed to precharge (deactivate) row
RC                                     40 # row cycle time
CDLR                                    5 # switching from write to read (changes tWTR)
WR                                     12 # last data-in to row precharge
CL                                     12 # CAS latency
WL                                      4 # Write latency
nbkgrp                                  4 # number of bank groups
CCDL                                    3 # column to column delay between accesses to different bank groups
RTPL                                    2 # read to precharge delay between accesses to different bank groups
Total number of memory sub partition = 12
addr_dec_mask[CHIP]  = 0000000000000000 	high:64 low:0
addr_dec_mask[BK]    = 000000000000e100 	high:16 low:8
addr_dec_mask[ROW]   = 000000000fff0000 	high:28 low:16
addr_dec_mask[COL]   = 0000000000001eff 	high:13 low:0
addr_dec_mask[BURST] = 000000000000003f 	high:6 low:0
sub_partition_id_mask = 0000000000000100
GPGPU-Sim uArch: clock freqs: 575000000.000000:575000000.000000:575000000.000000:750000000.000000
GPGPU-Sim uArch: clock periods: 0.00000000173913043478:0.00000000173913043478:0.00000000173913043478:0.00000000133333333333
*** Initializing Memory Statistics ***
GPGPU-Sim uArch: interconnect node map (shaderID+MemID to icntID)
GPGPU-Sim uArch: Memory nodes ID start from index: 14
GPGPU-Sim uArch:    0   1   2   3   4
GPGPU-Sim uArch:    5   6   7   8   9
GPGPU-Sim uArch:   10  11  12  13  14
GPGPU-Sim uArch:   15  16  17  18  19
GPGPU-Sim uArch:   20  21  22  23  24
GPGPU-Sim uArch:   25
GPGPU-Sim uArch: interconnect node reverse map (icntID to shaderID+MemID)
GPGPU-Sim uArch: Memory nodes start from ID: 14
GPGPU-Sim uArch:    0   1   2   3   4
GPGPU-Sim uArch:    5   6   7   8   9
GPGPU-Sim uArch:   10  11  12  13  14
GPGPU-Sim uArch:   15  16  17  18  19
GPGPU-Sim uArch:   20  21  22  23  24
GPGPU-Sim uArch:   25
b7fc9a4308094d0cefd425ef91cdfa56  /home/vishwesh/Desktop/Register_Sharing_Pbm/rodinia_2.4/cuda/b+tree/b+tree.out
GPGPU-Sim uArch: performance model initialization complete.
GPGPU-Sim PTX: __cudaRegisterFatBinary, fat_cubin_handle = 1, filename=./kernel/kernel_gpu_cuda_wrapper.cu
self exe links to: /home/vishwesh/Desktop/Register_Sharing_Pbm/rodinia_2.4/cuda/b+tree/b+tree.out
Running md5sum using "md5sum /home/vishwesh/Desktop/Register_Sharing_Pbm/rodinia_2.4/cuda/b+tree/b+tree.out "
Running cuobjdump using "$CUDA_INSTALL_PATH/bin/cuobjdump -ptx -elf -sass /home/vishwesh/Desktop/Register_Sharing_Pbm/rodinia_2.4/cuda/b+tree/b+tree.out > _cuobjdump_complete_output_AGFgrn"
Parsing file _cuobjdump_complete_output_AGFgrn
######### cuobjdump parser ########
## Adding new section ELF
Adding arch: sm_13
Adding identifier: ./kernel/kernel_gpu_cuda_wrapper.cu
## Adding new section PTX
Adding ptx filename: _cuobjdump_1.ptx
Adding arch: sm_13
Adding identifier: ./kernel/kernel_gpu_cuda_wrapper.cu
## Adding new section ELF
Adding arch: sm_13
Adding identifier: ./kernel/kernel_gpu_cuda_wrapper_2.cu
## Adding new section PTX
Adding ptx filename: _cuobjdump_2.ptx
Adding arch: sm_13
Adding identifier: ./kernel/kernel_gpu_cuda_wrapper_2.cu
## Adding new section ELF
Adding arch: sm_13
Adding identifier: ./util/cuda/cuda.cu
## Adding new section PTX
Adding ptx filename: _cuobjdump_3.ptx
Adding arch: sm_13
Adding identifier: ./util/cuda/cuda.cu
Done parsing!!!
GPGPU-Sim: WARNING: Capability >= 20 are not supported in PTXPlus
	Setting forced_max_capability to 19
GPGPU-Sim PTX: __cudaRegisterFunction findK : hostFun 0x0x406260, fat_cubin_handle = 1
GPGPU-Sim PTX: converting EMBEDDED .ptx file to ptxplus 
RUNNING cuobjdump_to_ptxplus ...
Parsing .elf file _cuobjdump_1.elf
()

Finished parsing .elf file _cuobjdump_1.elf
Parsing .ptx file _cuobjdump_1.ptx
Finished parsing .ptx file _cuobjdump_1.ptx
Parsing .sass file _cuobjdump_1.sass
Finished parsing .sass file _cuobjdump_1.sass
DONE. 
GPGPU-Sim PTX: calling cuobjdump_to_ptxplus
commandline: $GPGPUSIM_ROOT/build/$GPGPUSIM_CONFIG/cuobjdump_to_ptxplus/cuobjdump_to_ptxplus _cuobjdump_1.ptx _cuobjdump_1.sass _cuobjdump_1.elf _ptxplus_bgwMOz
GPGPU-Sim PTX: DONE converting EMBEDDED .ptx file to ptxplus 
GPGPU-Sim PTX: allocating constant region for "constant1findK" from 0x100 to 0x104 (global memory space) 1
GPGPU-Sim PTX: PTX uses two scalar type intruction with literal operand.
GPGPU-Sim PTX: instruction assembly for function 'findK'...   done.
GPGPU-Sim PTX: finding reconvergence points for 'findK'...
GPGPU-Sim PTX: Warning detected predicated return/exit.
GPGPU-Sim PTX: Finding dominators for 'findK'...
GPGPU-Sim PTX: Finding immediate dominators for 'findK'...
GPGPU-Sim PTX: Finding postdominators for 'findK'...
GPGPU-Sim PTX: Finding immediate postdominators for 'findK'...
GPGPU-Sim PTX: pre-decoding instructions for 'findK'...
GPGPU-Sim PTX: reconvergence points for findK...
GPGPU-Sim PTX:  1 (potential) branch divergence @  PC=0x030 (_1.ptx:42) @$p0.ne bra l0x000001e8;
GPGPU-Sim PTX:    immediate post dominator      @  PC=0x210 (_1.ptx:104) l0x00000210: ld.global.v2.u32 {$r0,$r1}, [$r8];
GPGPU-Sim PTX:  2 (potential) branch divergence @  PC=0x0d8 (_1.ptx:64) @$p1.ne bra l0x00000178;
GPGPU-Sim PTX:    immediate post dominator      @  PC=0x178 (_1.ptx:85) l0x00000178: nop;
GPGPU-Sim PTX:  3 (potential) branch divergence @  PC=0x0f8 (_1.ptx:68) @$p1.ne bra l0x00000178;
GPGPU-Sim PTX:    immediate post dominator      @  PC=0x178 (_1.ptx:85) l0x00000178: nop;
GPGPU-Sim PTX:  4 (potential) branch divergence @  PC=0x1d8 (_1.ptx:97) @$p1.ne bra l0x00000078;
GPGPU-Sim PTX:    immediate post dominator      @  PC=0x1e0 (_1.ptx:98) bra l0x00000210;
GPGPU-Sim PTX:  5 (potential) branch divergence @  PC=0x1e0 (_1.ptx:98) bra l0x00000210;
GPGPU-Sim PTX:    immediate post dominator      @  PC=0x210 (_1.ptx:104) l0x00000210: ld.global.v2.u32 {$r0,$r1}, [$r8];
GPGPU-Sim PTX: ... end of reconvergence points for findK
GPGPU-Sim PTX: ... done pre-decoding instructions for 'findK'.
GPGPU-Sim PTX: finished parsing EMBEDDED .ptx file _1.ptx
Adding _cuobjdump_1.ptx with cubin handle 1
GPGPU-Sim PTX: extracting embedded .ptx to temporary file "_ptx_MUjfdM"
Running: cat _ptx_MUjfdM | sed 's/.version 1.5/.version 1.4/' | sed 's/, texmode_independent//' | sed 's/\(\.extern \.const\[1\] .b8 \w\+\)\[\]/\1\[1\]/' | sed 's/const\[.\]/const\[0\]/g' > _ptx2_XP2IBY
GPGPU-Sim PTX: generating ptxinfo using "$CUDA_INSTALL_PATH/bin/ptxas --gpu-name=sm_20 -v _ptx2_XP2IBY --output-file  /dev/null 2> _ptx_MUjfdMinfo"
GPGPU-Sim PTX: Kernel 'findK' : regs=18, lmem=0, smem=0, cmem=96
GPGPU-Sim PTX: removing ptxinfo using "rm -f _ptx_MUjfdM _ptx2_XP2IBY _ptx_MUjfdMinfo"
GPGPU-Sim PTX: loading globals with explicit initializers... 
GPGPU-Sim PTX: finished loading globals (0 bytes total).
GPGPU-Sim PTX: loading constants with explicit initializers...  done.
GPGPU-Sim PTX: __cudaRegisterFatBinary, fat_cubin_handle = 2, filename=./kernel/kernel_gpu_cuda_wrapper_2.cu
GPGPU-Sim PTX: __cudaRegisterFunction findRangeK : hostFun 0x0x406980, fat_cubin_handle = 2
GPGPU-Sim PTX: converting EMBEDDED .ptx file to ptxplus 
RUNNING cuobjdump_to_ptxplus ...
Parsing .elf file _cuobjdump_2.elf
()

Finished parsing .elf file _cuobjdump_2.elf
Parsing .ptx file _cuobjdump_2.ptx
Finished parsing .ptx file _cuobjdump_2.ptx
Parsing .sass file _cuobjdump_2.sass
Finished parsing .sass file _cuobjdump_2.sass
DONE. 
GPGPU-Sim PTX: calling cuobjdump_to_ptxplus
commandline: $GPGPUSIM_ROOT/build/$GPGPUSIM_CONFIG/cuobjdump_to_ptxplus/cuobjdump_to_ptxplus _cuobjdump_2.ptx _cuobjdump_2.sass _cuobjdump_2.elf _ptxplus_QDJW2a
GPGPU-Sim PTX: DONE converting EMBEDDED .ptx file to ptxplus 
GPGPU-Sim PTX: allocating constant region for "constant1findRangeK" from 0x180 to 0x18c (global memory space) 2
GPGPU-Sim PTX: instruction assembly for function 'findRangeK'...   done.
GPGPU-Sim PTX: finding reconvergence points for 'findRangeK'...
GPGPU-Sim PTX: Warning detected predicated return/exit.
GPGPU-Sim PTX: Finding dominators for 'findRangeK'...
GPGPU-Sim PTX: Finding immediate dominators for 'findRangeK'...
GPGPU-Sim PTX: Finding postdominators for 'findRangeK'...
GPGPU-Sim PTX: Finding immediate postdominators for 'findRangeK'...
GPGPU-Sim PTX: pre-decoding instructions for 'findRangeK'...
GPGPU-Sim PTX: reconvergence points for findRangeK...
GPGPU-Sim PTX:  1 (potential) branch divergence @  PC=0x2e0 (_2.ptx:45) @$p0.ne bra l0x000002a0;
GPGPU-Sim PTX:    immediate post dominator      @  PC=0x580 (_2.ptx:133) l0x000002d0: ld.global.v2.u32 {$r0,$r1}, [$r8];
GPGPU-Sim PTX:  2 (potential) branch divergence @  PC=0x390 (_2.ptx:69) @$p1.ne bra l0x00000148;
GPGPU-Sim PTX:    immediate post dominator      @  PC=0x3f8 (_2.ptx:82) l0x00000148: nop;
GPGPU-Sim PTX:  3 (potential) branch divergence @  PC=0x3b0 (_2.ptx:73) @$p1.ne bra l0x00000148;
GPGPU-Sim PTX:    immediate post dominator      @  PC=0x3f8 (_2.ptx:82) l0x00000148: nop;
GPGPU-Sim PTX:  4 (potential) branch divergence @  PC=0x460 (_2.ptx:96) @$p1.ne bra l0x00000218;
GPGPU-Sim PTX:    immediate post dominator      @  PC=0x4c8 (_2.ptx:109) l0x00000218: nop;
GPGPU-Sim PTX:  5 (potential) branch divergence @  PC=0x480 (_2.ptx:100) @$p1.ne bra l0x00000218;
GPGPU-Sim PTX:    immediate post dominator      @  PC=0x4c8 (_2.ptx:109) l0x00000218: nop;
GPGPU-Sim PTX:  6 (potential) branch divergence @  PC=0x540 (_2.ptx:124) @$p1.ne bra l0x00000080;
GPGPU-Sim PTX:    immediate post dominator      @  PC=0x548 (_2.ptx:125) bra l0x000002d0;
GPGPU-Sim PTX:  7 (potential) branch divergence @  PC=0x548 (_2.ptx:125) bra l0x000002d0;
GPGPU-Sim PTX:    immediate post dominator      @  PC=0x580 (_2.ptx:133) l0x000002d0: ld.global.v2.u32 {$r0,$r1}, [$r8];
GPGPU-Sim PTX: ... end of reconvergence points for findRangeK
GPGPU-Sim PTX: ... done pre-decoding instructions for 'findRangeK'.
GPGPU-Sim PTX: finished parsing EMBEDDED .ptx file _2.ptx
Adding _cuobjdump_2.ptx with cubin handle 2
GPGPU-Sim PTX: extracting embedded .ptx to temporary file "_ptx_lGjcvn"
Running: cat _ptx_lGjcvn | sed 's/.version 1.5/.version 1.4/' | sed 's/, texmode_independent//' | sed 's/\(\.extern \.const\[1\] .b8 \w\+\)\[\]/\1\[1\]/' | sed 's/const\[.\]/const\[0\]/g' > _ptx2_jcusXz
GPGPU-Sim PTX: generating ptxinfo using "$CUDA_INSTALL_PATH/bin/ptxas --gpu-name=sm_20 -v _ptx2_jcusXz --output-file  /dev/null 2> _ptx_lGjcvninfo"
GPGPU-Sim PTX: Kernel 'findRangeK' : regs=23, lmem=0, smem=0, cmem=120
GPGPU-Sim PTX: removing ptxinfo using "rm -f _ptx_lGjcvn _ptx2_jcusXz _ptx_lGjcvninfo"
GPGPU-Sim PTX: loading globals with explicit initializers... 
GPGPU-Sim PTX: finished loading globals (0 bytes total).
GPGPU-Sim PTX: loading constants with explicit initializers...  done.
GPGPU-Sim PTX: __cudaRegisterFatBinary, fat_cubin_handle = 3, filename=./util/cuda/cuda.cu
Selecting device 0
Input File: ../../data/b+tree/mil.txt 
Command File: ../../data/b+tree/command.txt 
Command Buffer: 
j 6000 3000
k 10000


Getting input from file ../../data/b+tree/mil.txt...
Transforming data to a GPU suitable structure...
Tree transformation took 0.098369
Waiting for command
> 
******command: j count=6000, rSize=6000 
knodes_elem=3953, knodes_unit_mem=4084, knodes_mem=16144052
GPGPU-Sim: synchronize waiting for inactive GPU simulation
GPGPU-Sim API: Stream Manager State
GPGPU-Sim: detected inactive GPU simulation thread
# of blocks = 6000, # of threads/block = 508 (ensure that device can handle)

GPGPU-Sim PTX: cudaLaunch for 0x0x406980 (mode=performance simulation) on stream 0
GPGPU-Sim PTX: pushing kernel 'findRangeK' to stream 0, gridDim= (6000,1,1) blockDim = (508,1,1) 
kernel 'findRangeK' transfer to GPU hardware scheduler
GPGPU-Sim uArch: Shader 1 bind to kernel 1 'findRangeK'
GPGPU-Sim uArch: CTA/core = 2, limited by: regs
GPGPU-Sim uArch: core:  1, cta: 0 initialized @(1,0)
GPGPU-Sim uArch: Shader 2 bind to kernel 1 'findRangeK'
GPGPU-Sim uArch: core:  2, cta: 0 initialized @(1,0)
GPGPU-Sim uArch: Shader 3 bind to kernel 1 'findRangeK'
GPGPU-Sim uArch: core:  3, cta: 0 initialized @(1,0)
GPGPU-Sim uArch: Shader 4 bind to kernel 1 'findRangeK'
GPGPU-Sim uArch: core:  4, cta: 0 initialized @(1,0)
GPGPU-Sim uArch: Shader 5 bind to kernel 1 'findRangeK'
GPGPU-Sim uArch: core:  5, cta: 0 initialized @(1,0)
GPGPU-Sim uArch: Shader 6 bind to kernel 1 'findRangeK'
GPGPU-Sim uArch: core:  6, cta: 0 initialized @(1,0)
GPGPU-Sim uArch: Shader 7 bind to kernel 1 'findRangeK'
GPGPU-Sim uArch: core:  7, cta: 0 initialized @(1,0)
GPGPU-Sim uArch: Shader 8 bind to kernel 1 'findRangeK'
GPGPU-Sim uArch: core:  8, cta: 0 initialized @(1,0)
GPGPU-Sim uArch: Shader 9 bind to kernel 1 'findRangeK'
GPGPU-Sim uArch: core:  9, cta: 0 initialized @(1,0)
GPGPU-Sim uArch: Shader 10 bind to kernel 1 'findRangeK'
GPGPU-Sim uArch: core: 10, cta: 0 initialized @(1,0)
GPGPU-Sim uArch: Shader 11 bind to kernel 1 'findRangeK'
GPGPU-Sim uArch: core: 11, cta: 0 initialized @(1,0)
GPGPU-Sim uArch: Shader 12 bind to kernel 1 'findRangeK'
GPGPU-Sim uArch: core: 12, cta: 0 initialized @(1,0)
GPGPU-Sim uArch: Shader 13 bind to kernel 1 'findRangeK'
GPGPU-Sim uArch: core: 13, cta: 0 initialized @(1,0)
GPGPU-Sim uArch: Shader 0 bind to kernel 1 'findRangeK'
GPGPU-Sim uArch: core:  0, cta: 0 initialized @(1,0)
GPGPU-Sim uArch: core:  1, cta: 1 initialized @(2,0)
GPGPU-Sim uArch: core:  2, cta: 1 initialized @(2,0)
GPGPU-Sim uArch: core:  3, cta: 1 initialized @(2,0)
GPGPU-Sim uArch: core:  4, cta: 1 initialized @(2,0)
GPGPU-Sim uArch: core:  5, cta: 1 initialized @(2,0)
GPGPU-Sim uArch: core:  6, cta: 1 initialized @(2,0)
GPGPU-Sim uArch: core:  7, cta: 1 initialized @(2,0)
GPGPU-Sim uArch: core:  8, cta: 1 initialized @(2,0)
GPGPU-Sim uArch: core:  9, cta: 1 initialized @(2,0)
GPGPU-Sim uArch: core: 10, cta: 1 initialized @(2,0)
GPGPU-Sim uArch: core: 11, cta: 1 initialized @(2,0)
GPGPU-Sim uArch: core: 12, cta: 1 initialized @(2,0)
GPGPU-Sim uArch: core: 13, cta: 1 initialized @(2,0)
GPGPU-Sim uArch: core:  0, cta: 1 initialized @(2,0)
GPGPU-Sim PTX: WARNING (_2.ptx:38) ** reading undefined register '$r124' (cuid:0). Setting to 0X00000000. This is okay if you are simulating the native ISA
GPGPU-Sim uArch: Shader 2 finished CTA #0 (7702,0), 1 CTAs running
GPGPU-Sim uArch: core:  2, cta: 0 initialized @(7703,0)
GPGPU-Sim uArch: Shader 4 finished CTA #0 (7719,0), 1 CTAs running
GPGPU-Sim uArch: core:  4, cta: 0 initialized @(7720,0)
GPGPU-Sim uArch: Shader 1 finished CTA #0 (7723,0), 1 CTAs running
GPGPU-Sim uArch: core:  1, cta: 0 initialized @(7724,0)
GPGPU-Sim uArch: Shader 7 finished CTA #0 (7725,0), 1 CTAs running
GPGPU-Sim uArch: core:  7, cta: 0 initialized @(7726,0)
GPGPU-Sim uArch: Shader 11 finished CTA #0 (7727,0), 1 CTAs running
GPGPU-Sim uArch: core: 11, cta: 0 initialized @(7728,0)
GPGPU-Sim uArch: Shader 6 finished CTA #0 (7729,0), 1 CTAs running
GPGPU-Sim uArch: core:  6, cta: 0 initialized @(7730,0)
GPGPU-Sim uArch: Shader 3 finished CTA #1 (7731,0), 1 CTAs running
GPGPU-Sim uArch: core:  3, cta: 1 initialized @(7732,0)
GPGPU-Sim uArch: Shader 4 finished CTA #1 (7736,0), 1 CTAs running
GPGPU-Sim uArch: Shader 10 finished CTA #0 (7736,0), 1 CTAs running
GPGPU-Sim uArch: core:  4, cta: 1 initialized @(7737,0)
GPGPU-Sim uArch: core: 10, cta: 0 initialized @(7737,0)
GPGPU-Sim uArch: Shader 0 finished CTA #0 (7760,0), 1 CTAs running
GPGPU-Sim uArch: core:  0, cta: 0 initialized @(7761,0)
GPGPU-Sim uArch: Shader 0 finished CTA #1 (7800,0), 1 CTAs running
GPGPU-Sim uArch: core:  0, cta: 1 initialized @(7801,0)
GPGPU-Sim uArch: Shader 5 finished CTA #0 (7807,0), 1 CTAs running
GPGPU-Sim uArch: core:  5, cta: 0 initialized @(7808,0)
GPGPU-Sim uArch: Shader 1 finished CTA #1 (7823,0), 1 CTAs running
GPGPU-Sim uArch: core:  1, cta: 1 initialized @(7824,0)
GPGPU-Sim uArch: Shader 9 finished CTA #1 (7828,0), 1 CTAs running
GPGPU-Sim uArch: core:  9, cta: 1 initialized @(7829,0)
GPGPU-Sim uArch: Shader 2 finished CTA #1 (7833,0), 1 CTAs running
GPGPU-Sim uArch: core:  2, cta: 1 initialized @(7834,0)
GPGPU-Sim uArch: Shader 11 finished CTA #1 (7838,0), 1 CTAs running
GPGPU-Sim uArch: core: 11, cta: 1 initialized @(7839,0)
GPGPU-Sim uArch: Shader 12 finished CTA #1 (7841,0), 1 CTAs running
GPGPU-Sim uArch: core: 12, cta: 1 initialized @(7842,0)
GPGPU-Sim uArch: Shader 10 finished CTA #1 (7847,0), 1 CTAs running
GPGPU-Sim uArch: core: 10, cta: 1 initialized @(7848,0)
GPGPU-Sim uArch: Shader 9 finished CTA #0 (7855,0), 1 CTAs running
GPGPU-Sim uArch: core:  9, cta: 0 initialized @(7856,0)
GPGPU-Sim uArch: Shader 3 finished CTA #0 (7856,0), 1 CTAs running
GPGPU-Sim uArch: core:  3, cta: 0 initialized @(7857,0)
GPGPU-Sim uArch: Shader 5 finished CTA #1 (7877,0), 1 CTAs running
GPGPU-Sim uArch: core:  5, cta: 1 initialized @(7878,0)
GPGPU-Sim uArch: Shader 12 finished CTA #0 (7881,0), 1 CTAs running
GPGPU-Sim uArch: core: 12, cta: 0 initialized @(7882,0)
GPGPU-Sim uArch: Shader 8 finished CTA #1 (7897,0), 1 CTAs running
GPGPU-Sim uArch: core:  8, cta: 1 initialized @(7898,0)
GPGPU-Sim uArch: Shader 13 finished CTA #0 (7920,0), 1 CTAs running
GPGPU-Sim uArch: core: 13, cta: 0 initialized @(7921,0)
GPGPU-Sim uArch: Shader 8 finished CTA #0 (7947,0), 1 CTAs running
GPGPU-Sim uArch: core:  8, cta: 0 initialized @(7948,0)
GPGPU-Sim uArch: Shader 7 finished CTA #1 (8028,0), 1 CTAs running
GPGPU-Sim uArch: core:  7, cta: 1 initialized @(8029,0)
GPGPU-Sim uArch: Shader 13 finished CTA #1 (8060,0), 1 CTAs running
GPGPU-Sim uArch: core: 13, cta: 1 initialized @(8061,0)
GPGPU-Sim uArch: Shader 6 finished CTA #1 (8272,0), 1 CTAs running
GPGPU-Sim uArch: core:  6, cta: 1 initialized @(8273,0)
GPGPU-Sim uArch: Shader 2 finished CTA #0 (13210,0), 1 CTAs running
GPGPU-Sim uArch: core:  2, cta: 0 initialized @(13211,0)
GPGPU-Sim uArch: Shader 3 finished CTA #1 (13313,0), 1 CTAs running
GPGPU-Sim uArch: core:  3, cta: 1 initialized @(13314,0)
GPGPU-Sim uArch: Shader 3 finished CTA #0 (13340,0), 1 CTAs running
GPGPU-Sim uArch: core:  3, cta: 0 initialized @(13341,0)
GPGPU-Sim uArch: Shader 0 finished CTA #1 (13384,0), 1 CTAs running
GPGPU-Sim uArch: core:  0, cta: 1 initialized @(13385,0)
GPGPU-Sim uArch: Shader 11 finished CTA #1 (13408,0), 1 CTAs running
GPGPU-Sim uArch: core: 11, cta: 1 initialized @(13409,0)
GPGPU-Sim uArch: Shader 0 finished CTA #0 (13436,0), 1 CTAs running
GPGPU-Sim uArch: core:  0, cta: 0 initialized @(13437,0)
GPGPU-Sim uArch: Shader 1 finished CTA #0 (13437,0), 1 CTAs running
GPGPU-Sim uArch: core:  1, cta: 0 initialized @(13438,0)
GPGPU-Sim uArch: Shader 11 finished CTA #0 (13448,0), 1 CTAs running
GPGPU-Sim uArch: core: 11, cta: 0 initialized @(13449,0)
GPGPU-Sim uArch: Shader 7 finished CTA #0 (13464,0), 1 CTAs running
GPGPU-Sim uArch: core:  7, cta: 0 initialized @(13465,0)
GPGPU-Sim uArch: Shader 9 finished CTA #1 (13518,0), 1 CTAs running
GPGPU-Sim uArch: core:  9, cta: 1 initialized @(13519,0)
GPGPU-Sim uArch: Shader 10 finished CTA #0 (13585,0), 1 CTAs running
GPGPU-Sim uArch: core: 10, cta: 0 initialized @(13586,0)
GPGPU-Sim uArch: Shader 4 finished CTA #0 (13597,0), 1 CTAs running
GPGPU-Sim uArch: core:  4, cta: 0 initialized @(13598,0)
GPGPU-Sim uArch: Shader 9 finished CTA #0 (13608,0), 1 CTAs running
GPGPU-Sim uArch: core:  9, cta: 0 initialized @(13609,0)
GPGPU-Sim uArch: Shader 2 finished CTA #1 (13609,0), 1 CTAs running
GPGPU-Sim uArch: core:  2, cta: 1 initialized @(13610,0)
GPGPU-Sim uArch: Shader 13 finished CTA #0 (13611,0), 1 CTAs running
GPGPU-Sim uArch: core: 13, cta: 0 initialized @(13612,0)
GPGPU-Sim uArch: Shader 13 finished CTA #1 (13628,0), 1 CTAs running
GPGPU-Sim uArch: core: 13, cta: 1 initialized @(13629,0)
GPGPU-Sim uArch: Shader 6 finished CTA #0 (13693,0), 1 CTAs running
GPGPU-Sim uArch: core:  6, cta: 0 initialized @(13694,0)
GPGPU-Sim uArch: Shader 10 finished CTA #1 (13696,0), 1 CTAs running
GPGPU-Sim uArch: core: 10, cta: 1 initialized @(13697,0)
GPGPU-Sim uArch: Shader 4 finished CTA #1 (13759,0), 1 CTAs running
GPGPU-Sim uArch: core:  4, cta: 1 initialized @(13760,0)
GPGPU-Sim uArch: Shader 8 finished CTA #1 (13842,0), 1 CTAs running
GPGPU-Sim uArch: core:  8, cta: 1 initialized @(13843,0)
GPGPU-Sim uArch: Shader 1 finished CTA #1 (13871,0), 1 CTAs running
GPGPU-Sim uArch: core:  1, cta: 1 initialized @(13872,0)
GPGPU-Sim uArch: Shader 8 finished CTA #0 (13882,0), 1 CTAs running
GPGPU-Sim uArch: core:  8, cta: 0 initialized @(13883,0)
GPGPU-Sim uArch: Shader 5 finished CTA #0 (13980,0), 1 CTAs running
GPGPU-Sim uArch: core:  5, cta: 0 initialized @(13981,0)
GPGPU-Sim uArch: Shader 12 finished CTA #1 (14111,0), 1 CTAs running
GPGPU-Sim uArch: core: 12, cta: 1 initialized @(14112,0)
GPGPU-Sim uArch: Shader 12 finished CTA #0 (14222,0), 1 CTAs running
GPGPU-Sim uArch: core: 12, cta: 0 initialized @(14223,0)
GPGPU-Sim uArch: Shader 7 finished CTA #1 (14372,0), 1 CTAs running
GPGPU-Sim uArch: core:  7, cta: 1 initialized @(14373,0)
GPGPU-Sim uArch: Shader 5 finished CTA #1 (14415,0), 1 CTAs running
GPGPU-Sim uArch: core:  5, cta: 1 initialized @(14416,0)
GPGPU-Sim uArch: Shader 6 finished CTA #1 (14438,0), 1 CTAs running
GPGPU-Sim uArch: core:  6, cta: 1 initialized @(14439,0)
GPGPU-Sim uArch: Shader 0 finished CTA #1 (18499,0), 1 CTAs running
GPGPU-Sim uArch: core:  0, cta: 1 initialized @(18500,0)
GPGPU-Sim uArch: Shader 11 finished CTA #1 (18501,0), 1 CTAs running
GPGPU-Sim uArch: core: 11, cta: 1 initialized @(18502,0)
GPGPU-Sim uArch: Shader 0 finished CTA #0 (18516,0), 1 CTAs running
GPGPU-Sim uArch: core:  0, cta: 0 initialized @(18517,0)
GPGPU-Sim uArch: Shader 11 finished CTA #0 (18518,0), 1 CTAs running
GPGPU-Sim uArch: core: 11, cta: 0 initialized @(18519,0)
GPGPU-Sim uArch: Shader 3 finished CTA #1 (18687,0), 1 CTAs running
GPGPU-Sim uArch: core:  3, cta: 1 initialized @(18688,0)
GPGPU-Sim uArch: Shader 3 finished CTA #0 (18903,0), 1 CTAs running
GPGPU-Sim uArch: core:  3, cta: 0 initialized @(18904,0)
GPGPU-Sim uArch: Shader 1 finished CTA #0 (19072,0), 1 CTAs running
GPGPU-Sim uArch: core:  1, cta: 0 initialized @(19073,0)
GPGPU-Sim uArch: Shader 2 finished CTA #0 (19221,0), 1 CTAs running
GPGPU-Sim uArch: core:  2, cta: 0 initialized @(19222,0)
GPGPU-Sim uArch: Shader 13 finished CTA #0 (19227,0), 1 CTAs running
GPGPU-Sim uArch: core: 13, cta: 0 initialized @(19228,0)
GPGPU-Sim uArch: Shader 4 finished CTA #0 (19229,0), 1 CTAs running
GPGPU-Sim uArch: core:  4, cta: 0 initialized @(19230,0)
GPGPU-Sim uArch: Shader 9 finished CTA #1 (19231,0), 1 CTAs running
GPGPU-Sim uArch: core:  9, cta: 1 initialized @(19232,0)
GPGPU-Sim uArch: Shader 10 finished CTA #0 (19235,0), 1 CTAs running
GPGPU-Sim uArch: core: 10, cta: 0 initialized @(19236,0)
GPGPU-Sim uArch: Shader 13 finished CTA #1 (19244,0), 1 CTAs running
GPGPU-Sim uArch: core: 13, cta: 1 initialized @(19245,0)
GPGPU-Sim uArch: Shader 4 finished CTA #1 (19246,0), 1 CTAs running
GPGPU-Sim uArch: core:  4, cta: 1 initialized @(19247,0)
GPGPU-Sim uArch: Shader 10 finished CTA #1 (19276,0), 1 CTAs running
GPGPU-Sim uArch: core: 10, cta: 1 initialized @(19277,0)
GPGPU-Sim uArch: Shader 9 finished CTA #0 (19342,0), 1 CTAs running
GPGPU-Sim uArch: core:  9, cta: 0 initialized @(19343,0)
GPGPU-Sim uArch: Shader 8 finished CTA #0 (19373,0), 1 CTAs running
GPGPU-Sim uArch: core:  8, cta: 0 initialized @(19374,0)
GPGPU-Sim uArch: Shader 8 finished CTA #1 (19443,0), 1 CTAs running
GPGPU-Sim uArch: core:  8, cta: 1 initialized @(19444,0)
GPGPU-Sim uArch: Shader 1 finished CTA #1 (19523,0), 1 CTAs running
GPGPU-Sim uArch: core:  1, cta: 1 initialized @(19524,0)
GPGPU-Sim uArch: Shader 12 finished CTA #1 (19630,0), 1 CTAs running
GPGPU-Sim uArch: core: 12, cta: 1 initialized @(19631,0)
GPGPU-Sim uArch: Shader 2 finished CTA #1 (19632,0), 1 CTAs running
GPGPU-Sim uArch: core:  2, cta: 1 initialized @(19633,0)
GPGPU-Sim uArch: Shader 6 finished CTA #0 (19863,0), 1 CTAs running
GPGPU-Sim uArch: core:  6, cta: 0 initialized @(19864,0)
GPGPU-Sim uArch: Shader 5 finished CTA #0 (19865,0), 1 CTAs running
GPGPU-Sim uArch: core:  5, cta: 0 initialized @(19866,0)
GPGPU-Sim uArch: Shader 5 finished CTA #1 (19965,0), 1 CTAs running
GPGPU-Sim uArch: core:  5, cta: 1 initialized @(19966,0)
GPGPU-Sim uArch: Shader 7 finished CTA #0 (20110,0), 1 CTAs running
GPGPU-Sim uArch: core:  7, cta: 0 initialized @(20111,0)
GPGPU-Sim uArch: Shader 12 finished CTA #0 (20112,0), 1 CTAs running
GPGPU-Sim uArch: core: 12, cta: 0 initialized @(20113,0)
GPGPU-Sim uArch: Shader 7 finished CTA #1 (20150,0), 1 CTAs running
GPGPU-Sim uArch: core:  7, cta: 1 initialized @(20151,0)
GPGPU-Sim uArch: Shader 6 finished CTA #1 (20598,0), 1 CTAs running
GPGPU-Sim uArch: core:  6, cta: 1 initialized @(20599,0)
GPGPU-Sim uArch: Shader 3 finished CTA #1 (23595,0), 1 CTAs running
GPGPU-Sim uArch: core:  3, cta: 1 initialized @(23596,0)
GPGPU-Sim uArch: Shader 11 finished CTA #1 (23654,0), 1 CTAs running
GPGPU-Sim uArch: core: 11, cta: 1 initialized @(23655,0)
GPGPU-Sim uArch: Shader 0 finished CTA #1 (23697,0), 1 CTAs running
GPGPU-Sim uArch: core:  0, cta: 1 initialized @(23698,0)
GPGPU-Sim uArch: Shader 3 finished CTA #0 (23726,0), 1 CTAs running
GPGPU-Sim uArch: core:  3, cta: 0 initialized @(23727,0)
GPGPU-Sim uArch: Shader 11 finished CTA #0 (23814,0), 1 CTAs running
GPGPU-Sim uArch: core: 11, cta: 0 initialized @(23815,0)
GPGPU-Sim uArch: Shader 0 finished CTA #0 (23822,0), 1 CTAs running
GPGPU-Sim uArch: core:  0, cta: 0 initialized @(23823,0)
GPGPU-Sim uArch: Shader 6 finished CTA #0 (24500,0), 1 CTAs running
GPGPU-Sim uArch: core:  6, cta: 0 initialized @(24501,0)
GPGPU-Sim uArch: Shader 10 finished CTA #0 (24708,0), 1 CTAs running
GPGPU-Sim uArch: core: 10, cta: 0 initialized @(24709,0)
GPGPU-Sim uArch: Shader 9 finished CTA #1 (24719,0), 1 CTAs running
GPGPU-Sim uArch: core:  9, cta: 1 initialized @(24720,0)
GPGPU-Sim uArch: Shader 1 finished CTA #0 (24792,0), 1 CTAs running
GPGPU-Sim uArch: core:  1, cta: 0 initialized @(24793,0)
GPGPU-Sim uArch: Shader 8 finished CTA #0 (24807,0), 1 CTAs running
GPGPU-Sim uArch: core:  8, cta: 0 initialized @(24808,0)
GPGPU-Sim uArch: Shader 1 finished CTA #1 (24809,0), 1 CTAs running
GPGPU-Sim uArch: core:  1, cta: 1 initialized @(24810,0)
GPGPU-Sim uArch: Shader 2 finished CTA #0 (24877,0), 1 CTAs running
GPGPU-Sim uArch: Shader 8 finished CTA #1 (24877,0), 1 CTAs running
GPGPU-Sim uArch: core:  2, cta: 0 initialized @(24878,0)
GPGPU-Sim uArch: core:  8, cta: 1 initialized @(24878,0)
GPGPU-Sim uArch: Shader 13 finished CTA #0 (24885,0), 1 CTAs running
GPGPU-Sim uArch: core: 13, cta: 0 initialized @(24886,0)
GPGPU-Sim uArch: Shader 4 finished CTA #0 (24910,0), 1 CTAs running
GPGPU-Sim uArch: core:  4, cta: 0 initialized @(24911,0)
GPGPU-Sim uArch: Shader 5 finished CTA #0 (24922,0), 1 CTAs running
GPGPU-Sim uArch: core:  5, cta: 0 initialized @(24923,0)
GPGPU-Sim uArch: Shader 12 finished CTA #1 (24928,0), 1 CTAs running
GPGPU-Sim uArch: core: 12, cta: 1 initialized @(24929,0)
GPGPU-Sim uArch: Shader 12 finished CTA #0 (24978,0), 1 CTAs running
GPGPU-Sim uArch: core: 12, cta: 0 initialized @(24979,0)
GPGPU-Sim uArch: Shader 5 finished CTA #1 (25530,0), 1 CTAs running
GPGPU-Sim uArch: core:  5, cta: 1 initialized @(25531,0)
GPGPU-Sim uArch: Shader 2 finished CTA #1 (25652,0), 1 CTAs running
GPGPU-Sim uArch: core:  2, cta: 1 initialized @(25653,0)
GPGPU-Sim uArch: Shader 13 finished CTA #1 (25680,0), 1 CTAs running
GPGPU-Sim uArch: core: 13, cta: 1 initialized @(25681,0)
GPGPU-Sim uArch: Shader 10 finished CTA #1 (25681,0), 1 CTAs running
GPGPU-Sim uArch: core: 10, cta: 1 initialized @(25682,0)
GPGPU-Sim uArch: Shader 9 finished CTA #0 (25696,0), 1 CTAs running
GPGPU-Sim uArch: core:  9, cta: 0 initialized @(25697,0)
GPGPU-Sim uArch: Shader 7 finished CTA #0 (25699,0), 1 CTAs running
GPGPU-Sim uArch: core:  7, cta: 0 initialized @(25700,0)
GPGPU-Sim uArch: Shader 7 finished CTA #1 (25779,0), 1 CTAs running
GPGPU-Sim uArch: core:  7, cta: 1 initialized @(25780,0)
GPGPU-Sim uArch: Shader 4 finished CTA #1 (25963,0), 1 CTAs running
GPGPU-Sim uArch: core:  4, cta: 1 initialized @(25964,0)
GPGPU-Sim uArch: Shader 6 finished CTA #1 (26508,0), 1 CTAs running
GPGPU-Sim uArch: core:  6, cta: 1 initialized @(26509,0)
GPGPU-Sim uArch: Shader 3 finished CTA #1 (28836,0), 1 CTAs running
GPGPU-Sim uArch: core:  3, cta: 1 initialized @(28837,0)
GPGPU-Sim uArch: Shader 3 finished CTA #0 (28876,0), 1 CTAs running
GPGPU-Sim uArch: core:  3, cta: 0 initialized @(28877,0)
GPGPU-Sim uArch: Shader 11 finished CTA #1 (28890,0), 1 CTAs running
GPGPU-Sim uArch: core: 11, cta: 1 initialized @(28891,0)
GPGPU-Sim uArch: Shader 0 finished CTA #1 (28979,0), 1 CTAs running
GPGPU-Sim uArch: core:  0, cta: 1 initialized @(28980,0)
GPGPU-Sim uArch: Shader 11 finished CTA #0 (29052,0), 1 CTAs running
GPGPU-Sim uArch: core: 11, cta: 0 initialized @(29053,0)
GPGPU-Sim uArch: Shader 0 finished CTA #0 (29079,0), 1 CTAs running
GPGPU-Sim uArch: core:  0, cta: 0 initialized @(29080,0)
GPGPU-Sim uArch: Shader 1 finished CTA #1 (29692,0), 1 CTAs running
GPGPU-Sim uArch: core:  1, cta: 1 initialized @(29693,0)
GPGPU-Sim uArch: Shader 8 finished CTA #0 (29760,0), 1 CTAs running
GPGPU-Sim uArch: core:  8, cta: 0 initialized @(29761,0)
GPGPU-Sim uArch: Shader 8 finished CTA #1 (29777,0), 1 CTAs running
GPGPU-Sim uArch: core:  8, cta: 1 initialized @(29778,0)
GPGPU-Sim uArch: Shader 1 finished CTA #0 (29849,0), 1 CTAs running
GPGPU-Sim uArch: core:  1, cta: 0 initialized @(29850,0)
GPGPU-Sim uArch: Shader 10 finished CTA #0 (29911,0), 1 CTAs running
GPGPU-Sim uArch: core: 10, cta: 0 initialized @(29912,0)
GPGPU-Sim uArch: Shader 4 finished CTA #0 (30134,0), 1 CTAs running
GPGPU-Sim uArch: core:  4, cta: 0 initialized @(30135,0)
GPGPU-Sim uArch: Shader 13 finished CTA #0 (30302,0), 1 CTAs running
GPGPU-Sim uArch: core: 13, cta: 0 initialized @(30303,0)
GPGPU-Sim uArch: Shader 6 finished CTA #0 (30338,0), 1 CTAs running
GPGPU-Sim uArch: core:  6, cta: 0 initialized @(30339,0)
GPGPU-Sim uArch: Shader 2 finished CTA #0 (30551,0), 1 CTAs running
GPGPU-Sim uArch: core:  2, cta: 0 initialized @(30552,0)
GPGPU-Sim uArch: Shader 12 finished CTA #1 (30753,0), 1 CTAs running
GPGPU-Sim uArch: core: 12, cta: 1 initialized @(30754,0)
GPGPU-Sim uArch: Shader 7 finished CTA #1 (30770,0), 1 CTAs running
GPGPU-Sim uArch: core:  7, cta: 1 initialized @(30771,0)
GPGPU-Sim uArch: Shader 5 finished CTA #1 (30789,0), 1 CTAs running
GPGPU-Sim uArch: core:  5, cta: 1 initialized @(30790,0)
GPGPU-Sim uArch: Shader 12 finished CTA #0 (30793,0), 1 CTAs running
GPGPU-Sim uArch: core: 12, cta: 0 initialized @(30794,0)
GPGPU-Sim uArch: Shader 9 finished CTA #1 (30811,0), 1 CTAs running
GPGPU-Sim uArch: core:  9, cta: 1 initialized @(30812,0)
GPGPU-Sim uArch: Shader 5 finished CTA #0 (30829,0), 1 CTAs running
GPGPU-Sim uArch: core:  5, cta: 0 initialized @(30830,0)
GPGPU-Sim uArch: Shader 7 finished CTA #0 (30870,0), 1 CTAs running
GPGPU-Sim uArch: core:  7, cta: 0 initialized @(30871,0)
GPGPU-Sim uArch: Shader 9 finished CTA #0 (31439,0), 1 CTAs running
GPGPU-Sim uArch: core:  9, cta: 0 initialized @(31440,0)
GPGPU-Sim uArch: Shader 4 finished CTA #1 (31511,0), 1 CTAs running
GPGPU-Sim uArch: core:  4, cta: 1 initialized @(31512,0)
GPGPU-Sim uArch: Shader 10 finished CTA #1 (31634,0), 1 CTAs running
GPGPU-Sim uArch: core: 10, cta: 1 initialized @(31635,0)
GPGPU-Sim uArch: Shader 13 finished CTA #1 (31837,0), 1 CTAs running
GPGPU-Sim uArch: core: 13, cta: 1 initialized @(31838,0)
GPGPU-Sim uArch: Shader 2 finished CTA #1 (31901,0), 1 CTAs running
GPGPU-Sim uArch: core:  2, cta: 1 initialized @(31902,0)
GPGPU-Sim uArch: Shader 6 finished CTA #1 (32135,0), 1 CTAs running
GPGPU-Sim uArch: core:  6, cta: 1 initialized @(32136,0)
GPGPU-Sim uArch: Shader 3 finished CTA #0 (34517,0), 1 CTAs running
GPGPU-Sim uArch: core:  3, cta: 0 initialized @(34518,0)
GPGPU-Sim uArch: Shader 3 finished CTA #1 (34534,0), 1 CTAs running
GPGPU-Sim uArch: core:  3, cta: 1 initialized @(34535,0)
GPGPU-Sim uArch: Shader 0 finished CTA #1 (34597,0), 1 CTAs running
GPGPU-Sim uArch: core:  0, cta: 1 initialized @(34598,0)
GPGPU-Sim uArch: Shader 11 finished CTA #1 (34633,0), 1 CTAs running
GPGPU-Sim uArch: core: 11, cta: 1 initialized @(34634,0)
GPGPU-Sim uArch: Shader 11 finished CTA #0 (34764,0), 1 CTAs running
GPGPU-Sim uArch: core: 11, cta: 0 initialized @(34765,0)
GPGPU-Sim uArch: Shader 1 finished CTA #1 (34851,0), 1 CTAs running
GPGPU-Sim uArch: core:  1, cta: 1 initialized @(34852,0)
GPGPU-Sim uArch: Shader 8 finished CTA #0 (34951,0), 1 CTAs running
GPGPU-Sim uArch: core:  8, cta: 0 initialized @(34952,0)
GPGPU-Sim uArch: Shader 1 finished CTA #0 (34976,0), 1 CTAs running
GPGPU-Sim uArch: core:  1, cta: 0 initialized @(34977,0)
GPGPU-Sim uArch: Shader 0 finished CTA #0 (35031,0), 1 CTAs running
GPGPU-Sim uArch: core:  0, cta: 0 initialized @(35032,0)
GPGPU-Sim uArch: Shader 8 finished CTA #1 (35041,0), 1 CTAs running
GPGPU-Sim uArch: core:  8, cta: 1 initialized @(35042,0)
GPGPU-Sim uArch: Shader 10 finished CTA #0 (35264,0), 1 CTAs running
GPGPU-Sim uArch: core: 10, cta: 0 initialized @(35265,0)
GPGPU-Sim uArch: Shader 6 finished CTA #0 (35464,0), 1 CTAs running
GPGPU-Sim uArch: core:  6, cta: 0 initialized @(35465,0)
GPGPU-Sim uArch: Shader 4 finished CTA #0 (35506,0), 1 CTAs running
GPGPU-Sim uArch: core:  4, cta: 0 initialized @(35507,0)
GPGPU-Sim uArch: Shader 13 finished CTA #0 (35681,0), 1 CTAs running
GPGPU-Sim uArch: core: 13, cta: 0 initialized @(35682,0)
GPGPU-Sim uArch: Shader 2 finished CTA #0 (35831,0), 1 CTAs running
GPGPU-Sim uArch: core:  2, cta: 0 initialized @(35832,0)
GPGPU-Sim uArch: Shader 12 finished CTA #1 (36020,0), 1 CTAs running
GPGPU-Sim uArch: core: 12, cta: 1 initialized @(36021,0)
GPGPU-Sim uArch: Shader 12 finished CTA #0 (36198,0), 1 CTAs running
GPGPU-Sim uArch: core: 12, cta: 0 initialized @(36199,0)
GPGPU-Sim uArch: Shader 5 finished CTA #1 (36452,0), 1 CTAs running
GPGPU-Sim uArch: core:  5, cta: 1 initialized @(36453,0)
GPGPU-Sim uArch: Shader 9 finished CTA #1 (36578,0), 1 CTAs running
GPGPU-Sim uArch: core:  9, cta: 1 initialized @(36579,0)
GPGPU-Sim uArch: Shader 7 finished CTA #1 (36580,0), 1 CTAs running
GPGPU-Sim uArch: core:  7, cta: 1 initialized @(36581,0)
GPGPU-Sim uArch: Shader 4 finished CTA #1 (37121,0), 1 CTAs running
GPGPU-Sim uArch: core:  4, cta: 1 initialized @(37122,0)
GPGPU-Sim uArch: Shader 10 finished CTA #1 (37173,0), 1 CTAs running
GPGPU-Sim uArch: core: 10, cta: 1 initialized @(37174,0)
GPGPU-Sim uArch: Shader 2 finished CTA #1 (37262,0), 1 CTAs running
GPGPU-Sim uArch: core:  2, cta: 1 initialized @(37263,0)
GPGPU-Sim uArch: Shader 7 finished CTA #0 (37357,0), 1 CTAs running
GPGPU-Sim uArch: core:  7, cta: 0 initialized @(37358,0)
GPGPU-Sim uArch: Shader 13 finished CTA #1 (37412,0), 1 CTAs running
GPGPU-Sim uArch: core: 13, cta: 1 initialized @(37413,0)
GPGPU-Sim uArch: Shader 6 finished CTA #1 (37488,0), 1 CTAs running
GPGPU-Sim uArch: core:  6, cta: 1 initialized @(37489,0)
GPGPU-Sim uArch: Shader 5 finished CTA #0 (37561,0), 1 CTAs running
GPGPU-Sim uArch: core:  5, cta: 0 initialized @(37562,0)
GPGPU-Sim uArch: Shader 9 finished CTA #0 (37725,0), 1 CTAs running
GPGPU-Sim uArch: core:  9, cta: 0 initialized @(37726,0)
GPGPU-Sim uArch: Shader 3 finished CTA #0 (39365,0), 1 CTAs running
GPGPU-Sim uArch: core:  3, cta: 0 initialized @(39366,0)
GPGPU-Sim uArch: Shader 11 finished CTA #1 (39625,0), 1 CTAs running
GPGPU-Sim uArch: core: 11, cta: 1 initialized @(39626,0)
GPGPU-Sim uArch: Shader 11 finished CTA #0 (39747,0), 1 CTAs running
GPGPU-Sim uArch: core: 11, cta: 0 initialized @(39748,0)
GPGPU-Sim uArch: Shader 3 finished CTA #1 (39784,0), 1 CTAs running
GPGPU-Sim uArch: core:  3, cta: 1 initialized @(39785,0)
GPGPU-Sim uArch: Shader 1 finished CTA #0 (39902,0), 1 CTAs running
GPGPU-Sim uArch: core:  1, cta: 0 initialized @(39903,0)
GPGPU-Sim uArch: Shader 1 finished CTA #1 (39919,0), 1 CTAs running
GPGPU-Sim uArch: core:  1, cta: 1 initialized @(39920,0)
GPGPU-Sim uArch: Shader 0 finished CTA #1 (40074,0), 1 CTAs running
GPGPU-Sim uArch: core:  0, cta: 1 initialized @(40075,0)
GPGPU-Sim uArch: Shader 4 finished CTA #0 (40401,0), 1 CTAs running
GPGPU-Sim uArch: core:  4, cta: 0 initialized @(40402,0)
GPGPU-Sim uArch: Shader 10 finished CTA #0 (40544,0), 1 CTAs running
GPGPU-Sim uArch: core: 10, cta: 0 initialized @(40545,0)
GPGPU-Sim uArch: Shader 2 finished CTA #0 (40638,0), 1 CTAs running
GPGPU-Sim uArch: core:  2, cta: 0 initialized @(40639,0)
GPGPU-Sim uArch: Shader 8 finished CTA #0 (40646,0), 1 CTAs running
GPGPU-Sim uArch: core:  8, cta: 0 initialized @(40647,0)
GPGPU-Sim uArch: Shader 8 finished CTA #1 (40777,0), 1 CTAs running
GPGPU-Sim uArch: core:  8, cta: 1 initialized @(40778,0)
GPGPU-Sim uArch: Shader 7 finished CTA #1 (40786,0), 1 CTAs running
GPGPU-Sim uArch: core:  7, cta: 1 initialized @(40787,0)
GPGPU-Sim uArch: Shader 0 finished CTA #0 (40903,0), 1 CTAs running
GPGPU-Sim uArch: core:  0, cta: 0 initialized @(40904,0)
GPGPU-Sim uArch: Shader 12 finished CTA #1 (41120,0), 1 CTAs running
GPGPU-Sim uArch: core: 12, cta: 1 initialized @(41121,0)
GPGPU-Sim uArch: Shader 6 finished CTA #0 (41189,0), 1 CTAs running
GPGPU-Sim uArch: core:  6, cta: 0 initialized @(41190,0)
GPGPU-Sim uArch: Shader 12 finished CTA #0 (41210,0), 1 CTAs running
GPGPU-Sim uArch: core: 12, cta: 0 initialized @(41211,0)
GPGPU-Sim uArch: Shader 13 finished CTA #0 (41345,0), 1 CTAs running
GPGPU-Sim uArch: core: 13, cta: 0 initialized @(41346,0)
GPGPU-Sim uArch: Shader 5 finished CTA #1 (41839,0), 1 CTAs running
GPGPU-Sim uArch: core:  5, cta: 1 initialized @(41840,0)
GPGPU-Sim uArch: Shader 4 finished CTA #1 (42037,0), 1 CTAs running
GPGPU-Sim uArch: core:  4, cta: 1 initialized @(42038,0)
GPGPU-Sim uArch: Shader 2 finished CTA #1 (42089,0), 1 CTAs running
GPGPU-Sim uArch: core:  2, cta: 1 initialized @(42090,0)
GPGPU-Sim uArch: Shader 10 finished CTA #1 (42092,0), 1 CTAs running
GPGPU-Sim uArch: core: 10, cta: 1 initialized @(42093,0)
GPGPU-Sim uArch: Shader 9 finished CTA #1 (42290,0), 1 CTAs running
GPGPU-Sim uArch: core:  9, cta: 1 initialized @(42291,0)
GPGPU-Sim uArch: Shader 7 finished CTA #0 (42732,0), 1 CTAs running
GPGPU-Sim uArch: core:  7, cta: 0 initialized @(42733,0)
GPGPU-Sim uArch: Shader 6 finished CTA #1 (43296,0), 1 CTAs running
GPGPU-Sim uArch: core:  6, cta: 1 initialized @(43297,0)
GPGPU-Sim uArch: Shader 13 finished CTA #1 (43484,0), 1 CTAs running
GPGPU-Sim uArch: core: 13, cta: 1 initialized @(43485,0)
GPGPU-Sim uArch: Shader 9 finished CTA #0 (43544,0), 1 CTAs running
GPGPU-Sim uArch: core:  9, cta: 0 initialized @(43545,0)
GPGPU-Sim uArch: Shader 5 finished CTA #0 (43745,0), 1 CTAs running
GPGPU-Sim uArch: core:  5, cta: 0 initialized @(43746,0)
GPGPU-Sim uArch: Shader 3 finished CTA #0 (44391,0), 1 CTAs running
GPGPU-Sim uArch: core:  3, cta: 0 initialized @(44392,0)
GPGPU-Sim uArch: Shader 3 finished CTA #1 (44590,0), 1 CTAs running
GPGPU-Sim uArch: core:  3, cta: 1 initialized @(44591,0)
GPGPU-Sim uArch: Shader 11 finished CTA #0 (44890,0), 1 CTAs running
GPGPU-Sim uArch: core: 11, cta: 0 initialized @(44891,0)
GPGPU-Sim uArch: Shader 11 finished CTA #1 (44907,0), 1 CTAs running
GPGPU-Sim uArch: core: 11, cta: 1 initialized @(44908,0)
GPGPU-Sim uArch: Shader 1 finished CTA #1 (44992,0), 1 CTAs running
GPGPU-Sim uArch: core:  1, cta: 1 initialized @(44993,0)
GPGPU-Sim uArch: Shader 1 finished CTA #0 (45117,0), 1 CTAs running
GPGPU-Sim uArch: core:  1, cta: 0 initialized @(45118,0)
GPGPU-Sim uArch: Shader 4 finished CTA #0 (45766,0), 1 CTAs running
GPGPU-Sim uArch: core:  4, cta: 0 initialized @(45767,0)
GPGPU-Sim uArch: Shader 7 finished CTA #1 (45854,0), 1 CTAs running
GPGPU-Sim uArch: core:  7, cta: 1 initialized @(45855,0)
GPGPU-Sim uArch: Shader 0 finished CTA #1 (45856,0), 1 CTAs running
GPGPU-Sim uArch: core:  0, cta: 1 initialized @(45857,0)
GPGPU-Sim uArch: Shader 8 finished CTA #0 (45895,0), 1 CTAs running
GPGPU-Sim uArch: core:  8, cta: 0 initialized @(45896,0)
GPGPU-Sim uArch: Shader 8 finished CTA #1 (45912,0), 1 CTAs running
GPGPU-Sim uArch: core:  8, cta: 1 initialized @(45913,0)
GPGPU-Sim uArch: Shader 13 finished CTA #0 (45978,0), 1 CTAs running
GPGPU-Sim uArch: core: 13, cta: 0 initialized @(45979,0)
GPGPU-Sim uArch: Shader 2 finished CTA #0 (46039,0), 1 CTAs running
GPGPU-Sim uArch: core:  2, cta: 0 initialized @(46040,0)
GPGPU-Sim uArch: Shader 12 finished CTA #1 (46114,0), 1 CTAs running
GPGPU-Sim uArch: core: 12, cta: 1 initialized @(46115,0)
GPGPU-Sim uArch: Shader 10 finished CTA #0 (46283,0), 1 CTAs running
GPGPU-Sim uArch: core: 10, cta: 0 initialized @(46284,0)
GPGPU-Sim uArch: Shader 12 finished CTA #0 (46338,0), 1 CTAs running
GPGPU-Sim uArch: core: 12, cta: 0 initialized @(46339,0)
GPGPU-Sim uArch: Shader 6 finished CTA #0 (46358,0), 1 CTAs running
GPGPU-Sim uArch: core:  6, cta: 0 initialized @(46359,0)
GPGPU-Sim uArch: Shader 0 finished CTA #0 (46743,0), 1 CTAs running
GPGPU-Sim uArch: core:  0, cta: 0 initialized @(46744,0)
GPGPU-Sim uArch: Shader 5 finished CTA #1 (47183,0), 1 CTAs running
GPGPU-Sim uArch: core:  5, cta: 1 initialized @(47184,0)
GPGPU-Sim uArch: Shader 9 finished CTA #1 (47238,0), 1 CTAs running
GPGPU-Sim uArch: core:  9, cta: 1 initialized @(47239,0)
GPGPU-Sim uArch: Shader 4 finished CTA #1 (47337,0), 1 CTAs running
GPGPU-Sim uArch: core:  4, cta: 1 initialized @(47338,0)
GPGPU-Sim uArch: Shader 2 finished CTA #1 (47481,0), 1 CTAs running
GPGPU-Sim uArch: core:  2, cta: 1 initialized @(47482,0)
GPGPU-Sim uArch: Shader 10 finished CTA #1 (47498,0), 1 CTAs running
GPGPU-Sim uArch: core: 10, cta: 1 initialized @(47499,0)
GPGPU-Sim uArch: Shader 7 finished CTA #0 (47706,0), 1 CTAs running
GPGPU-Sim uArch: core:  7, cta: 0 initialized @(47707,0)
GPGPU-Sim uArch: Shader 6 finished CTA #1 (47978,0), 1 CTAs running
GPGPU-Sim uArch: core:  6, cta: 1 initialized @(47979,0)
GPGPU-Sim uArch: Shader 13 finished CTA #1 (48524,0), 1 CTAs running
GPGPU-Sim uArch: core: 13, cta: 1 initialized @(48525,0)
GPGPU-Sim uArch: Shader 9 finished CTA #0 (48732,0), 1 CTAs running
GPGPU-Sim uArch: core:  9, cta: 0 initialized @(48733,0)
GPGPU-Sim uArch: Shader 5 finished CTA #0 (48779,0), 1 CTAs running
GPGPU-Sim uArch: core:  5, cta: 0 initialized @(48780,0)
GPGPU-Sim uArch: Shader 3 finished CTA #0 (50067,0), 1 CTAs running
GPGPU-Sim uArch: core:  3, cta: 0 initialized @(50068,0)
GPGPU-Sim uArch: Shader 3 finished CTA #1 (50157,0), 1 CTAs running
GPGPU-Sim uArch: core:  3, cta: 1 initialized @(50158,0)
GPGPU-Sim uArch: Shader 1 finished CTA #1 (50239,0), 1 CTAs running
GPGPU-Sim uArch: core:  1, cta: 1 initialized @(50240,0)
GPGPU-Sim uArch: Shader 1 finished CTA #0 (50256,0), 1 CTAs running
GPGPU-Sim uArch: core:  1, cta: 0 initialized @(50257,0)
GPGPU-Sim uArch: Shader 11 finished CTA #1 (50293,0), 1 CTAs running
GPGPU-Sim uArch: core: 11, cta: 1 initialized @(50294,0)
GPGPU-Sim uArch: Shader 11 finished CTA #0 (50320,0), 1 CTAs running
GPGPU-Sim uArch: core: 11, cta: 0 initialized @(50321,0)
GPGPU-Sim uArch: Shader 0 finished CTA #1 (51352,0), 1 CTAs running
GPGPU-Sim uArch: core:  0, cta: 1 initialized @(51353,0)
GPGPU-Sim uArch: Shader 12 finished CTA #1 (51364,0), 1 CTAs running
GPGPU-Sim uArch: core: 12, cta: 1 initialized @(51365,0)
GPGPU-Sim uArch: Shader 10 finished CTA #0 (51370,0), 1 CTAs running
GPGPU-Sim uArch: core: 10, cta: 0 initialized @(51371,0)
GPGPU-Sim uArch: Shader 6 finished CTA #0 (51387,0), 1 CTAs running
GPGPU-Sim uArch: core:  6, cta: 0 initialized @(51388,0)
GPGPU-Sim uArch: Shader 13 finished CTA #0 (51430,0), 1 CTAs running
GPGPU-Sim uArch: core: 13, cta: 0 initialized @(51431,0)
GPGPU-Sim uArch: Shader 2 finished CTA #0 (51477,0), 1 CTAs running
GPGPU-Sim uArch: core:  2, cta: 0 initialized @(51478,0)
GPGPU-Sim uArch: Shader 12 finished CTA #0 (51493,0), 1 CTAs running
GPGPU-Sim uArch: core: 12, cta: 0 initialized @(51494,0)
GPGPU-Sim uArch: Shader 8 finished CTA #0 (51494,0), 1 CTAs running
GPGPU-Sim uArch: core:  8, cta: 0 initialized @(51495,0)
GPGPU-Sim uArch: Shader 8 finished CTA #1 (51673,0), 1 CTAs running
GPGPU-Sim uArch: core:  8, cta: 1 initialized @(51674,0)
GPGPU-Sim uArch: Shader 7 finished CTA #1 (51685,0), 1 CTAs running
GPGPU-Sim uArch: core:  7, cta: 1 initialized @(51686,0)
GPGPU-Sim uArch: Shader 4 finished CTA #0 (51715,0), 1 CTAs running
GPGPU-Sim uArch: core:  4, cta: 0 initialized @(51716,0)
GPGPU-Sim uArch: Shader 9 finished CTA #1 (52177,0), 1 CTAs running
GPGPU-Sim uArch: core:  9, cta: 1 initialized @(52178,0)
GPGPU-Sim uArch: Shader 5 finished CTA #1 (52286,0), 1 CTAs running
GPGPU-Sim uArch: core:  5, cta: 1 initialized @(52287,0)
GPGPU-Sim uArch: Shader 0 finished CTA #0 (52504,0), 1 CTAs running
GPGPU-Sim uArch: core:  0, cta: 0 initialized @(52505,0)
GPGPU-Sim uArch: Shader 2 finished CTA #1 (53219,0), 1 CTAs running
GPGPU-Sim uArch: core:  2, cta: 1 initialized @(53220,0)
GPGPU-Sim uArch: Shader 6 finished CTA #1 (53262,0), 1 CTAs running
GPGPU-Sim uArch: core:  6, cta: 1 initialized @(53263,0)
GPGPU-Sim uArch: Shader 4 finished CTA #1 (53273,0), 1 CTAs running
GPGPU-Sim uArch: core:  4, cta: 1 initialized @(53274,0)
GPGPU-Sim uArch: Shader 10 finished CTA #1 (53495,0), 1 CTAs running
GPGPU-Sim uArch: core: 10, cta: 1 initialized @(53496,0)
GPGPU-Sim uArch: Shader 7 finished CTA #0 (53570,0), 1 CTAs running
GPGPU-Sim uArch: core:  7, cta: 0 initialized @(53571,0)
GPGPU-Sim uArch: Shader 9 finished CTA #0 (53855,0), 1 CTAs running
GPGPU-Sim uArch: core:  9, cta: 0 initialized @(53856,0)
GPGPU-Sim uArch: Shader 13 finished CTA #1 (53907,0), 1 CTAs running
GPGPU-Sim uArch: core: 13, cta: 1 initialized @(53908,0)
GPGPU-Sim uArch: Shader 5 finished CTA #0 (54307,0), 1 CTAs running
GPGPU-Sim uArch: core:  5, cta: 0 initialized @(54308,0)
GPGPU-Sim uArch: Shader 3 finished CTA #0 (54937,0), 1 CTAs running
GPGPU-Sim uArch: core:  3, cta: 0 initialized @(54938,0)
GPGPU-Sim uArch: Shader 3 finished CTA #1 (55048,0), 1 CTAs running
GPGPU-Sim uArch: core:  3, cta: 1 initialized @(55049,0)
GPGPU-Sim uArch: Shader 1 finished CTA #0 (55198,0), 1 CTAs running
GPGPU-Sim uArch: core:  1, cta: 0 initialized @(55199,0)
GPGPU-Sim uArch: Shader 1 finished CTA #1 (55288,0), 1 CTAs running
GPGPU-Sim uArch: core:  1, cta: 1 initialized @(55289,0)
GPGPU-Sim uArch: Shader 11 finished CTA #1 (56142,0), 1 CTAs running
GPGPU-Sim uArch: core: 11, cta: 1 initialized @(56143,0)
GPGPU-Sim uArch: Shader 0 finished CTA #1 (56155,0), 1 CTAs running
GPGPU-Sim uArch: core:  0, cta: 1 initialized @(56156,0)
GPGPU-Sim uArch: Shader 11 finished CTA #0 (56169,0), 1 CTAs running
GPGPU-Sim uArch: core: 11, cta: 0 initialized @(56170,0)
GPGPU-Sim uArch: Shader 12 finished CTA #0 (56600,0), 1 CTAs running
GPGPU-Sim uArch: core: 12, cta: 0 initialized @(56601,0)
GPGPU-Sim uArch: Shader 8 finished CTA #0 (56602,0), 1 CTAs running
GPGPU-Sim uArch: core:  8, cta: 0 initialized @(56603,0)
GPGPU-Sim uArch: Shader 12 finished CTA #1 (56627,0), 1 CTAs running
GPGPU-Sim uArch: core: 12, cta: 1 initialized @(56628,0)
GPGPU-Sim uArch: Shader 8 finished CTA #1 (56796,0), 1 CTAs running
GPGPU-Sim uArch: core:  8, cta: 1 initialized @(56797,0)
GPGPU-Sim uArch: Shader 6 finished CTA #0 (56925,0), 1 CTAs running
GPGPU-Sim uArch: core:  6, cta: 0 initialized @(56926,0)
GPGPU-Sim uArch: Shader 13 finished CTA #0 (57057,0), 1 CTAs running
GPGPU-Sim uArch: core: 13, cta: 0 initialized @(57058,0)
GPGPU-Sim uArch: Shader 10 finished CTA #0 (57129,0), 1 CTAs running
GPGPU-Sim uArch: core: 10, cta: 0 initialized @(57130,0)
GPGPU-Sim uArch: Shader 2 finished CTA #0 (57244,0), 1 CTAs running
GPGPU-Sim uArch: core:  2, cta: 0 initialized @(57245,0)
GPGPU-Sim uArch: Shader 7 finished CTA #1 (57421,0), 1 CTAs running
GPGPU-Sim uArch: core:  7, cta: 1 initialized @(57422,0)
GPGPU-Sim uArch: Shader 4 finished CTA #0 (57423,0), 1 CTAs running
GPGPU-Sim uArch: core:  4, cta: 0 initialized @(57424,0)
GPGPU-Sim uArch: Shader 9 finished CTA #1 (57569,0), 1 CTAs running
GPGPU-Sim uArch: core:  9, cta: 1 initialized @(57570,0)
GPGPU-Sim uArch: Shader 5 finished CTA #1 (57711,0), 1 CTAs running
GPGPU-Sim uArch: core:  5, cta: 1 initialized @(57712,0)
GPGPU-Sim uArch: Shader 0 finished CTA #0 (57994,0), 1 CTAs running
GPGPU-Sim uArch: core:  0, cta: 0 initialized @(57995,0)
GPGPU-Sim uArch: Shader 4 finished CTA #1 (58549,0), 1 CTAs running
GPGPU-Sim uArch: core:  4, cta: 1 initialized @(58550,0)
GPGPU-Sim uArch: Shader 2 finished CTA #1 (58704,0), 1 CTAs running
GPGPU-Sim uArch: core:  2, cta: 1 initialized @(58705,0)
GPGPU-Sim uArch: Shader 6 finished CTA #1 (58715,0), 1 CTAs running
GPGPU-Sim uArch: core:  6, cta: 1 initialized @(58716,0)
GPGPU-Sim uArch: Shader 9 finished CTA #0 (58942,0), 1 CTAs running
GPGPU-Sim uArch: core:  9, cta: 0 initialized @(58943,0)
GPGPU-Sim uArch: Shader 10 finished CTA #1 (59091,0), 1 CTAs running
GPGPU-Sim uArch: core: 10, cta: 1 initialized @(59092,0)
GPGPU-Sim uArch: Shader 7 finished CTA #0 (59166,0), 1 CTAs running
GPGPU-Sim uArch: core:  7, cta: 0 initialized @(59167,0)
GPGPU-Sim uArch: Shader 13 finished CTA #1 (59479,0), 1 CTAs running
GPGPU-Sim uArch: core: 13, cta: 1 initialized @(59480,0)
GPGPU-Sim uArch: Shader 5 finished CTA #0 (59956,0), 1 CTAs running
GPGPU-Sim uArch: core:  5, cta: 0 initialized @(59957,0)
GPGPU-Sim uArch: Shader 3 finished CTA #0 (60052,0), 1 CTAs running
GPGPU-Sim uArch: core:  3, cta: 0 initialized @(60053,0)
GPGPU-Sim uArch: Shader 3 finished CTA #1 (60167,0), 1 CTAs running
GPGPU-Sim uArch: core:  3, cta: 1 initialized @(60168,0)
GPGPU-Sim uArch: Shader 1 finished CTA #0 (60506,0), 1 CTAs running
GPGPU-Sim uArch: core:  1, cta: 0 initialized @(60507,0)
GPGPU-Sim uArch: Shader 1 finished CTA #1 (60789,0), 1 CTAs running
GPGPU-Sim uArch: core:  1, cta: 1 initialized @(60790,0)
GPGPU-Sim uArch: Shader 11 finished CTA #1 (61196,0), 1 CTAs running
GPGPU-Sim uArch: core: 11, cta: 1 initialized @(61197,0)
GPGPU-Sim uArch: Shader 11 finished CTA #0 (61213,0), 1 CTAs running
GPGPU-Sim uArch: core: 11, cta: 0 initialized @(61214,0)
GPGPU-Sim uArch: Shader 6 finished CTA #0 (62007,0), 1 CTAs running
GPGPU-Sim uArch: core:  6, cta: 0 initialized @(62008,0)
GPGPU-Sim uArch: Shader 0 finished CTA #1 (62026,0), 1 CTAs running
GPGPU-Sim uArch: core:  0, cta: 1 initialized @(62027,0)
GPGPU-Sim uArch: Shader 4 finished CTA #0 (62054,0), 1 CTAs running
GPGPU-Sim uArch: core:  4, cta: 0 initialized @(62055,0)
GPGPU-Sim uArch: Shader 12 finished CTA #0 (62300,0), 1 CTAs running
GPGPU-Sim uArch: core: 12, cta: 0 initialized @(62301,0)
GPGPU-Sim uArch: Shader 2 finished CTA #0 (62312,0), 1 CTAs running
GPGPU-Sim uArch: core:  2, cta: 0 initialized @(62313,0)
GPGPU-Sim uArch: Shader 8 finished CTA #1 (62428,0), 1 CTAs running
GPGPU-Sim uArch: core:  8, cta: 1 initialized @(62429,0)
GPGPU-Sim uArch: Shader 8 finished CTA #0 (62445,0), 1 CTAs running
GPGPU-Sim uArch: core:  8, cta: 0 initialized @(62446,0)
GPGPU-Sim uArch: Shader 9 finished CTA #1 (62645,0), 1 CTAs running
GPGPU-Sim uArch: core:  9, cta: 1 initialized @(62646,0)
GPGPU-Sim uArch: Shader 7 finished CTA #1 (62865,0), 1 CTAs running
GPGPU-Sim uArch: core:  7, cta: 1 initialized @(62866,0)
GPGPU-Sim uArch: Shader 13 finished CTA #0 (62884,0), 1 CTAs running
GPGPU-Sim uArch: core: 13, cta: 0 initialized @(62885,0)
GPGPU-Sim uArch: Shader 12 finished CTA #1 (63018,0), 1 CTAs running
GPGPU-Sim uArch: core: 12, cta: 1 initialized @(63019,0)
GPGPU-Sim uArch: Shader 10 finished CTA #0 (63131,0), 1 CTAs running
GPGPU-Sim uArch: core: 10, cta: 0 initialized @(63132,0)
GPGPU-Sim uArch: Shader 5 finished CTA #1 (63402,0), 1 CTAs running
GPGPU-Sim uArch: core:  5, cta: 1 initialized @(63403,0)
GPGPU-Sim uArch: Shader 4 finished CTA #1 (63805,0), 1 CTAs running
GPGPU-Sim uArch: core:  4, cta: 1 initialized @(63806,0)
GPGPU-Sim uArch: Shader 0 finished CTA #0 (63881,0), 1 CTAs running
GPGPU-Sim uArch: core:  0, cta: 0 initialized @(63882,0)
GPGPU-Sim uArch: Shader 6 finished CTA #1 (63885,0), 1 CTAs running
GPGPU-Sim uArch: core:  6, cta: 1 initialized @(63886,0)
GPGPU-Sim uArch: Shader 2 finished CTA #1 (63897,0), 1 CTAs running
GPGPU-Sim uArch: core:  2, cta: 1 initialized @(63898,0)
GPGPU-Sim uArch: Shader 9 finished CTA #0 (64269,0), 1 CTAs running
GPGPU-Sim uArch: core:  9, cta: 0 initialized @(64270,0)
GPGPU-Sim uArch: Shader 10 finished CTA #1 (64764,0), 1 CTAs running
GPGPU-Sim uArch: core: 10, cta: 1 initialized @(64765,0)
GPGPU-Sim uArch: Shader 13 finished CTA #1 (64959,0), 1 CTAs running
GPGPU-Sim uArch: core: 13, cta: 1 initialized @(64960,0)
GPGPU-Sim uArch: Shader 3 finished CTA #0 (65189,0), 1 CTAs running
GPGPU-Sim uArch: core:  3, cta: 0 initialized @(65190,0)
GPGPU-Sim uArch: Shader 7 finished CTA #0 (65193,0), 1 CTAs running
GPGPU-Sim uArch: core:  7, cta: 0 initialized @(65194,0)
GPGPU-Sim uArch: Shader 5 finished CTA #0 (65368,0), 1 CTAs running
GPGPU-Sim uArch: core:  5, cta: 0 initialized @(65369,0)
GPGPU-Sim uArch: Shader 3 finished CTA #1 (65370,0), 1 CTAs running
GPGPU-Sim uArch: core:  3, cta: 1 initialized @(65371,0)
GPGPU-Sim uArch: Shader 1 finished CTA #0 (65541,0), 1 CTAs running
GPGPU-Sim uArch: core:  1, cta: 0 initialized @(65542,0)
GPGPU-Sim uArch: Shader 1 finished CTA #1 (65581,0), 1 CTAs running
GPGPU-Sim uArch: core:  1, cta: 1 initialized @(65582,0)
GPGPU-Sim uArch: Shader 11 finished CTA #1 (66379,0), 1 CTAs running
GPGPU-Sim uArch: core: 11, cta: 1 initialized @(66380,0)
GPGPU-Sim uArch: Shader 11 finished CTA #0 (66449,0), 1 CTAs running
GPGPU-Sim uArch: core: 11, cta: 0 initialized @(66450,0)
GPGPU-Sim uArch: Shader 4 finished CTA #0 (67237,0), 1 CTAs running
GPGPU-Sim uArch: core:  4, cta: 0 initialized @(67238,0)
GPGPU-Sim uArch: Shader 6 finished CTA #0 (67291,0), 1 CTAs running
GPGPU-Sim uArch: core:  6, cta: 0 initialized @(67292,0)
GPGPU-Sim uArch: Shader 2 finished CTA #0 (67410,0), 1 CTAs running
GPGPU-Sim uArch: core:  2, cta: 0 initialized @(67411,0)
GPGPU-Sim uArch: Shader 0 finished CTA #1 (67515,0), 1 CTAs running
GPGPU-Sim uArch: core:  0, cta: 1 initialized @(67516,0)
GPGPU-Sim uArch: Shader 9 finished CTA #1 (67839,0), 1 CTAs running
GPGPU-Sim uArch: core:  9, cta: 1 initialized @(67840,0)
GPGPU-Sim uArch: Shader 12 finished CTA #0 (67977,0), 1 CTAs running
GPGPU-Sim uArch: core: 12, cta: 0 initialized @(67978,0)
GPGPU-Sim uArch: Shader 13 finished CTA #0 (68156,0), 1 CTAs running
GPGPU-Sim uArch: core: 13, cta: 0 initialized @(68157,0)
GPGPU-Sim uArch: Shader 12 finished CTA #1 (68186,0), 1 CTAs running
GPGPU-Sim uArch: core: 12, cta: 1 initialized @(68187,0)
GPGPU-Sim uArch: Shader 10 finished CTA #0 (68254,0), 1 CTAs running
GPGPU-Sim uArch: core: 10, cta: 0 initialized @(68255,0)
GPGPU-Sim uArch: Shader 8 finished CTA #1 (68294,0), 1 CTAs running
GPGPU-Sim uArch: core:  8, cta: 1 initialized @(68295,0)
GPGPU-Sim uArch: Shader 7 finished CTA #1 (68340,0), 1 CTAs running
GPGPU-Sim uArch: core:  7, cta: 1 initialized @(68341,0)
GPGPU-Sim uArch: Shader 8 finished CTA #0 (68887,0), 1 CTAs running
GPGPU-Sim uArch: core:  8, cta: 0 initialized @(68888,0)
GPGPU-Sim uArch: Shader 5 finished CTA #1 (68895,0), 1 CTAs running
GPGPU-Sim uArch: core:  5, cta: 1 initialized @(68896,0)
GPGPU-Sim uArch: Shader 6 finished CTA #1 (69190,0), 1 CTAs running
GPGPU-Sim uArch: core:  6, cta: 1 initialized @(69191,0)
GPGPU-Sim uArch: Shader 0 finished CTA #0 (69237,0), 1 CTAs running
GPGPU-Sim uArch: core:  0, cta: 0 initialized @(69238,0)
GPGPU-Sim uArch: Shader 2 finished CTA #1 (69239,0), 1 CTAs running
GPGPU-Sim uArch: core:  2, cta: 1 initialized @(69240,0)
GPGPU-Sim uArch: Shader 4 finished CTA #1 (69529,0), 1 CTAs running
GPGPU-Sim uArch: core:  4, cta: 1 initialized @(69530,0)
GPGPU-Sim uArch: Shader 9 finished CTA #0 (69622,0), 1 CTAs running
GPGPU-Sim uArch: core:  9, cta: 0 initialized @(69623,0)
GPGPU-Sim uArch: Shader 13 finished CTA #1 (70041,0), 1 CTAs running
GPGPU-Sim uArch: core: 13, cta: 1 initialized @(70042,0)
GPGPU-Sim uArch: Shader 10 finished CTA #1 (70100,0), 1 CTAs running
GPGPU-Sim uArch: core: 10, cta: 1 initialized @(70101,0)
GPGPU-Sim uArch: Shader 3 finished CTA #0 (70102,0), 1 CTAs running
GPGPU-Sim uArch: core:  3, cta: 0 initialized @(70103,0)
GPGPU-Sim uArch: Shader 7 finished CTA #0 (70244,0), 1 CTAs running
GPGPU-Sim uArch: core:  7, cta: 0 initialized @(70245,0)
GPGPU-Sim uArch: Shader 1 finished CTA #0 (70667,0), 1 CTAs running
GPGPU-Sim uArch: core:  1, cta: 0 initialized @(70668,0)
GPGPU-Sim uArch: Shader 1 finished CTA #1 (70789,0), 1 CTAs running
GPGPU-Sim uArch: core:  1, cta: 1 initialized @(70790,0)
GPGPU-Sim uArch: Shader 3 finished CTA #1 (70892,0), 1 CTAs running
GPGPU-Sim uArch: core:  3, cta: 1 initialized @(70893,0)
GPGPU-Sim uArch: Shader 5 finished CTA #0 (71246,0), 1 CTAs running
GPGPU-Sim uArch: core:  5, cta: 0 initialized @(71247,0)
GPGPU-Sim uArch: Shader 11 finished CTA #1 (71361,0), 1 CTAs running
GPGPU-Sim uArch: core: 11, cta: 1 initialized @(71362,0)
GPGPU-Sim uArch: Shader 11 finished CTA #0 (71486,0), 1 CTAs running
GPGPU-Sim uArch: core: 11, cta: 0 initialized @(71487,0)
GPGPU-Sim uArch: Shader 6 finished CTA #0 (72509,0), 1 CTAs running
GPGPU-Sim uArch: core:  6, cta: 0 initialized @(72510,0)
GPGPU-Sim uArch: Shader 0 finished CTA #1 (72563,0), 1 CTAs running
GPGPU-Sim uArch: core:  0, cta: 1 initialized @(72564,0)
GPGPU-Sim uArch: Shader 4 finished CTA #0 (72613,0), 1 CTAs running
GPGPU-Sim uArch: core:  4, cta: 0 initialized @(72614,0)
GPGPU-Sim uArch: Shader 9 finished CTA #1 (73123,0), 1 CTAs running
GPGPU-Sim uArch: core:  9, cta: 1 initialized @(73124,0)
GPGPU-Sim uArch: Shader 2 finished CTA #0 (73309,0), 1 CTAs running
GPGPU-Sim uArch: core:  2, cta: 0 initialized @(73310,0)
GPGPU-Sim uArch: Shader 12 finished CTA #1 (73312,0), 1 CTAs running
GPGPU-Sim uArch: core: 12, cta: 1 initialized @(73313,0)
GPGPU-Sim uArch: Shader 12 finished CTA #0 (73352,0), 1 CTAs running
GPGPU-Sim uArch: core: 12, cta: 0 initialized @(73353,0)
GPGPU-Sim uArch: Shader 7 finished CTA #1 (73406,0), 1 CTAs running
GPGPU-Sim uArch: core:  7, cta: 1 initialized @(73407,0)
GPGPU-Sim uArch: Shader 13 finished CTA #0 (73472,0), 1 CTAs running
GPGPU-Sim uArch: core: 13, cta: 0 initialized @(73473,0)
GPGPU-Sim uArch: Shader 10 finished CTA #0 (73551,0), 1 CTAs running
GPGPU-Sim uArch: core: 10, cta: 0 initialized @(73552,0)
GPGPU-Sim uArch: Shader 8 finished CTA #1 (74070,0), 1 CTAs running
GPGPU-Sim uArch: core:  8, cta: 1 initialized @(74071,0)
GPGPU-Sim uArch: Shader 5 finished CTA #1 (74312,0), 1 CTAs running
GPGPU-Sim uArch: core:  5, cta: 1 initialized @(74313,0)
GPGPU-Sim uArch: Shader 6 finished CTA #1 (74468,0), 1 CTAs running
GPGPU-Sim uArch: core:  6, cta: 1 initialized @(74469,0)
GPGPU-Sim uArch: Shader 8 finished CTA #0 (74479,0), 1 CTAs running
GPGPU-Sim uArch: core:  8, cta: 0 initialized @(74480,0)
GPGPU-Sim uArch: Shader 0 finished CTA #0 (74510,0), 1 CTAs running
GPGPU-Sim uArch: core:  0, cta: 0 initialized @(74511,0)
GPGPU-Sim uArch: Shader 4 finished CTA #1 (75147,0), 1 CTAs running
GPGPU-Sim uArch: core:  4, cta: 1 initialized @(75148,0)
GPGPU-Sim uArch: Shader 2 finished CTA #1 (75229,0), 1 CTAs running
GPGPU-Sim uArch: core:  2, cta: 1 initialized @(75230,0)
GPGPU-Sim uArch: Shader 7 finished CTA #0 (75234,0), 1 CTAs running
GPGPU-Sim uArch: core:  7, cta: 0 initialized @(75235,0)
GPGPU-Sim uArch: Shader 10 finished CTA #1 (75251,0), 1 CTAs running
GPGPU-Sim uArch: core: 10, cta: 1 initialized @(75252,0)
GPGPU-Sim uArch: Shader 9 finished CTA #0 (75359,0), 1 CTAs running
GPGPU-Sim uArch: core:  9, cta: 0 initialized @(75360,0)
GPGPU-Sim uArch: Shader 3 finished CTA #0 (75461,0), 1 CTAs running
GPGPU-Sim uArch: core:  3, cta: 0 initialized @(75462,0)
GPGPU-Sim uArch: Shader 3 finished CTA #1 (75698,0), 1 CTAs running
GPGPU-Sim uArch: core:  3, cta: 1 initialized @(75699,0)
GPGPU-Sim uArch: Shader 1 finished CTA #0 (75746,0), 1 CTAs running
GPGPU-Sim uArch: core:  1, cta: 0 initialized @(75747,0)
GPGPU-Sim uArch: Shader 1 finished CTA #1 (75886,0), 1 CTAs running
GPGPU-Sim uArch: core:  1, cta: 1 initialized @(75887,0)
GPGPU-Sim uArch: Shader 13 finished CTA #1 (75978,0), 1 CTAs running
GPGPU-Sim uArch: core: 13, cta: 1 initialized @(75979,0)
GPGPU-Sim uArch: Shader 5 finished CTA #0 (76191,0), 1 CTAs running
GPGPU-Sim uArch: core:  5, cta: 0 initialized @(76192,0)
GPGPU-Sim uArch: Shader 11 finished CTA #1 (76781,0), 1 CTAs running
GPGPU-Sim uArch: core: 11, cta: 1 initialized @(76782,0)
GPGPU-Sim uArch: Shader 11 finished CTA #0 (76851,0), 1 CTAs running
GPGPU-Sim uArch: core: 11, cta: 0 initialized @(76852,0)
GPGPU-Sim uArch: Shader 6 finished CTA #0 (77716,0), 1 CTAs running
GPGPU-Sim uArch: core:  6, cta: 0 initialized @(77717,0)
GPGPU-Sim uArch: Shader 4 finished CTA #0 (78182,0), 1 CTAs running
GPGPU-Sim uArch: core:  4, cta: 0 initialized @(78183,0)
GPGPU-Sim uArch: Shader 9 finished CTA #1 (78386,0), 1 CTAs running
GPGPU-Sim uArch: core:  9, cta: 1 initialized @(78387,0)
GPGPU-Sim uArch: Shader 12 finished CTA #0 (78698,0), 1 CTAs running
GPGPU-Sim uArch: core: 12, cta: 0 initialized @(78699,0)
GPGPU-Sim uArch: Shader 12 finished CTA #1 (78715,0), 1 CTAs running
GPGPU-Sim uArch: core: 12, cta: 1 initialized @(78716,0)
GPGPU-Sim uArch: Shader 10 finished CTA #0 (78725,0), 1 CTAs running
GPGPU-Sim uArch: core: 10, cta: 0 initialized @(78726,0)
GPGPU-Sim uArch: Shader 0 finished CTA #1 (78742,0), 1 CTAs running
GPGPU-Sim uArch: core:  0, cta: 1 initialized @(78743,0)
GPGPU-Sim uArch: Shader 7 finished CTA #1 (78979,0), 1 CTAs running
GPGPU-Sim uArch: core:  7, cta: 1 initialized @(78980,0)
GPGPU-Sim uArch: Shader 13 finished CTA #0 (79159,0), 1 CTAs running
GPGPU-Sim uArch: core: 13, cta: 0 initialized @(79160,0)
GPGPU-Sim uArch: Shader 2 finished CTA #0 (79393,0), 1 CTAs running
GPGPU-Sim uArch: core:  2, cta: 0 initialized @(79394,0)
GPGPU-Sim uArch: Shader 8 finished CTA #0 (79569,0), 1 CTAs running
GPGPU-Sim uArch: core:  8, cta: 0 initialized @(79570,0)
GPGPU-Sim uArch: Shader 8 finished CTA #1 (79609,0), 1 CTAs running
GPGPU-Sim uArch: core:  8, cta: 1 initialized @(79610,0)
GPGPU-Sim uArch: Shader 6 finished CTA #1 (79827,0), 1 CTAs running
GPGPU-Sim uArch: core:  6, cta: 1 initialized @(79828,0)
GPGPU-Sim uArch: Shader 5 finished CTA #1 (79829,0), 1 CTAs running
GPGPU-Sim uArch: core:  5, cta: 1 initialized @(79830,0)
GPGPU-Sim uArch: Shader 4 finished CTA #1 (80365,0), 1 CTAs running
GPGPU-Sim uArch: core:  4, cta: 1 initialized @(80366,0)
GPGPU-Sim uArch: Shader 10 finished CTA #1 (80410,0), 1 CTAs running
GPGPU-Sim uArch: core: 10, cta: 1 initialized @(80411,0)
GPGPU-Sim uArch: Shader 3 finished CTA #0 (80557,0), 1 CTAs running
GPGPU-Sim uArch: core:  3, cta: 0 initialized @(80558,0)
GPGPU-Sim uArch: Shader 1 finished CTA #1 (80625,0), 1 CTAs running
GPGPU-Sim uArch: core:  1, cta: 1 initialized @(80626,0)
GPGPU-Sim uArch: Shader 3 finished CTA #1 (80627,0), 1 CTAs running
GPGPU-Sim uArch: core:  3, cta: 1 initialized @(80628,0)
GPGPU-Sim uArch: Shader 1 finished CTA #0 (80715,0), 1 CTAs running
GPGPU-Sim uArch: core:  1, cta: 0 initialized @(80716,0)
GPGPU-Sim uArch: Shader 7 finished CTA #0 (80827,0), 1 CTAs running
GPGPU-Sim uArch: core:  7, cta: 0 initialized @(80828,0)
GPGPU-Sim uArch: Shader 0 finished CTA #0 (81056,0), 1 CTAs running
GPGPU-Sim uArch: core:  0, cta: 0 initialized @(81057,0)
GPGPU-Sim uArch: Shader 2 finished CTA #1 (81146,0), 1 CTAs running
GPGPU-Sim uArch: core:  2, cta: 1 initialized @(81147,0)
GPGPU-Sim uArch: Shader 9 finished CTA #0 (81342,0), 1 CTAs running
GPGPU-Sim uArch: core:  9, cta: 0 initialized @(81343,0)
GPGPU-Sim uArch: Shader 13 finished CTA #1 (81468,0), 1 CTAs running
GPGPU-Sim uArch: core: 13, cta: 1 initialized @(81469,0)
GPGPU-Sim uArch: Shader 11 finished CTA #1 (81978,0), 1 CTAs running
GPGPU-Sim uArch: core: 11, cta: 1 initialized @(81979,0)
GPGPU-Sim uArch: Shader 11 finished CTA #0 (82180,0), 1 CTAs running
GPGPU-Sim uArch: core: 11, cta: 0 initialized @(82181,0)
GPGPU-Sim uArch: Shader 5 finished CTA #0 (82311,0), 1 CTAs running
GPGPU-Sim uArch: core:  5, cta: 0 initialized @(82312,0)
GPGPU-Sim uArch: Shader 6 finished CTA #0 (83028,0), 1 CTAs running
GPGPU-Sim uArch: core:  6, cta: 0 initialized @(83029,0)
GPGPU-Sim uArch: Shader 4 finished CTA #0 (83448,0), 1 CTAs running
GPGPU-Sim uArch: core:  4, cta: 0 initialized @(83449,0)
GPGPU-Sim uArch: Shader 12 finished CTA #0 (83737,0), 1 CTAs running
GPGPU-Sim uArch: core: 12, cta: 0 initialized @(83738,0)
GPGPU-Sim uArch: Shader 10 finished CTA #0 (83821,0), 1 CTAs running
GPGPU-Sim uArch: core: 10, cta: 0 initialized @(83822,0)
GPGPU-Sim uArch: Shader 12 finished CTA #1 (83995,0), 1 CTAs running
GPGPU-Sim uArch: core: 12, cta: 1 initialized @(83996,0)
GPGPU-Sim uArch: Shader 9 finished CTA #1 (84026,0), 1 CTAs running
GPGPU-Sim uArch: core:  9, cta: 1 initialized @(84027,0)
GPGPU-Sim uArch: Shader 0 finished CTA #1 (84125,0), 1 CTAs running
GPGPU-Sim uArch: core:  0, cta: 1 initialized @(84126,0)
GPGPU-Sim uArch: Shader 13 finished CTA #0 (84648,0), 1 CTAs running
GPGPU-Sim uArch: core: 13, cta: 0 initialized @(84649,0)
GPGPU-Sim uArch: Shader 7 finished CTA #1 (84707,0), 1 CTAs running
GPGPU-Sim uArch: core:  7, cta: 1 initialized @(84708,0)
GPGPU-Sim uArch: Shader 2 finished CTA #0 (84709,0), 1 CTAs running
GPGPU-Sim uArch: core:  2, cta: 0 initialized @(84710,0)
GPGPU-Sim uArch: Shader 8 finished CTA #0 (85093,0), 1 CTAs running
GPGPU-Sim uArch: core:  8, cta: 0 initialized @(85094,0)
GPGPU-Sim uArch: Shader 6 finished CTA #1 (85273,0), 1 CTAs running
GPGPU-Sim uArch: core:  6, cta: 1 initialized @(85274,0)
GPGPU-Sim uArch: Shader 8 finished CTA #1 (85389,0), 1 CTAs running
GPGPU-Sim uArch: core:  8, cta: 1 initialized @(85390,0)
GPGPU-Sim uArch: Shader 10 finished CTA #1 (85498,0), 1 CTAs running
GPGPU-Sim uArch: core: 10, cta: 1 initialized @(85499,0)
GPGPU-Sim uArch: Shader 5 finished CTA #1 (85522,0), 1 CTAs running
GPGPU-Sim uArch: core:  5, cta: 1 initialized @(85523,0)
GPGPU-Sim uArch: Shader 1 finished CTA #1 (86181,0), 1 CTAs running
GPGPU-Sim uArch: core:  1, cta: 1 initialized @(86182,0)
[...]
GPGPU-Sim uArch: Shader 8 empty (release kernel 2 'findK').
GPGPU-Sim uArch: Shader 7 finished CTA #0 (1014106,1164117), 2 CTAs running
GPGPU-Sim uArch: Shader 0 finished CTA #2 (1014188,1164117), 1 CTAs running
GPGPU-Sim uArch: Shader 5 finished CTA #2 (1014190,1164117), 2 CTAs running
GPGPU-Sim uArch: Shader 10 finished CTA #1 (1014192,1164117), 2 CTAs running
GPGPU-Sim uArch: Shader 11 finished CTA #2 (1014302,1164117), 1 CTAs running
GPGPU-Sim uArch: Shader 9 finished CTA #0 (1014511,1164117), 2 CTAs running
GPGPU-Sim uArch: Shader 1 finished CTA #0 (1014514,1164117), 2 CTAs running
GPGPU-Sim uArch: Shader 2 finished CTA #2 (1014519,1164117), 2 CTAs running
GPGPU-Sim uArch: Shader 13 finished CTA #0 (1014520,1164117), 1 CTAs running
GPGPU-Sim uArch: Shader 10 finished CTA #2 (1014521,1164117), 1 CTAs running
GPGPU-Sim uArch: Shader 4 finished CTA #2 (1014843,1164117), 1 CTAs running
GPGPU-Sim uArch: Shader 0 finished CTA #0 (1014890,1164117), 0 CTAs running
GPGPU-Sim uArch: Shader 0 empty (release kernel 2 'findK').
GPGPU-Sim uArch: Shader 12 finished CTA #1 (1014898,1164117), 1 CTAs running
GPGPU-Sim uArch: Shader 3 finished CTA #1 (1014995,1164117), 1 CTAs running
GPGPU-Sim uArch: Shader 11 finished CTA #0 (1014998,1164117), 0 CTAs running
GPGPU-Sim uArch: Shader 11 empty (release kernel 2 'findK').
GPGPU-Sim uArch: Shader 5 finished CTA #1 (1015266,1164117), 1 CTAs running
GPGPU-Sim uArch: Shader 6 finished CTA #2 (1015545,1164117), 2 CTAs running
GPGPU-Sim uArch: Shader 10 finished CTA #0 (1015979,1164117), 0 CTAs running
GPGPU-Sim uArch: Shader 10 empty (release kernel 2 'findK').
GPGPU-Sim uArch: Shader 13 finished CTA #2 (1015999,1164117), 0 CTAs running
GPGPU-Sim uArch: Shader 13 empty (release kernel 2 'findK').
GPGPU-Sim uArch: Shader 1 finished CTA #1 (1016016,1164117), 1 CTAs running
GPGPU-Sim uArch: Shader 3 finished CTA #0 (1016018,1164117), 0 CTAs running
GPGPU-Sim uArch: Shader 3 empty (release kernel 2 'findK').
GPGPU-Sim uArch: Shader 9 finished CTA #2 (1016022,1164117), 1 CTAs running
GPGPU-Sim uArch: Shader 5 finished CTA #0 (1016060,1164117), 0 CTAs running
GPGPU-Sim uArch: Shader 5 empty (release kernel 2 'findK').
GPGPU-Sim uArch: Shader 7 finished CTA #1 (1016277,1164117), 1 CTAs running
GPGPU-Sim uArch: Shader 2 finished CTA #1 (1016295,1164117), 1 CTAs running
GPGPU-Sim uArch: Shader 7 finished CTA #2 (1016394,1164117), 0 CTAs running
GPGPU-Sim uArch: Shader 7 empty (release kernel 2 'findK').
GPGPU-Sim uArch: Shader 1 finished CTA #2 (1016461,1164117), 0 CTAs running
GPGPU-Sim uArch: Shader 1 empty (release kernel 2 'findK').
GPGPU-Sim uArch: Shader 6 finished CTA #0 (1016520,1164117), 1 CTAs running
GPGPU-Sim uArch: Shader 4 finished CTA #0 (1016542,1164117), 0 CTAs running
GPGPU-Sim uArch: Shader 4 empty (release kernel 2 'findK').
GPGPU-Sim uArch: Shader 6 finished CTA #1 (1016564,1164117), 0 CTAs running
GPGPU-Sim uArch: Shader 6 empty (release kernel 2 'findK').
GPGPU-Sim uArch: Shader 9 finished CTA #1 (1016569,1164117), 0 CTAs running
GPGPU-Sim uArch: Shader 9 empty (release kernel 2 'findK').
GPGPU-Sim uArch: Shader 12 finished CTA #0 (1016577,1164117), 0 CTAs running
GPGPU-Sim uArch: Shader 12 empty (release kernel 2 'findK').
GPGPU-Sim uArch: Shader 2 finished CTA #0 (1016668,1164117), 0 CTAs running
GPGPU-Sim uArch: Shader 2 empty (release kernel 2 'findK').
GPGPU-Sim uArch: GPU detected kernel 'findK' finished on shader 2.
kernel_name = findK 
kernel_launch_uid = 2 
gpu_sim_cycle = 1016669
gpu_sim_insn = 385667974
gpu_ipc =     379.3447
gpu_tot_sim_cycle = 2180786
gpu_tot_sim_insn = 756868087
gpu_tot_ipc =     347.0621
gpu_tot_issued_cta = 0
gpu_stall_dramfull = 16695
gpu_stall_icnt2sh    = 3828515
gpu_total_sim_rate=469230

========= Core cache stats =========
L1I_cache:
	L1I_total_cache_accesses = 15006035
	L1I_total_cache_misses = 4779
	L1I_total_cache_miss_rate = 0.0003
	L1I_total_cache_pending_hits = 0
	L1I_total_cache_reservation_fails = 6659
L1D_cache:
	L1D_cache_core[0]: Access = 333253, Miss = 62004, Miss_rate = 0.186, Pending_hits = 73736, Reservation_fails = 686913
	L1D_cache_core[1]: Access = 334654, Miss = 62468, Miss_rate = 0.187, Pending_hits = 73548, Reservation_fails = 677415
	L1D_cache_core[2]: Access = 335441, Miss = 62909, Miss_rate = 0.188, Pending_hits = 73272, Reservation_fails = 668495
	L1D_cache_core[3]: Access = 336936, Miss = 63568, Miss_rate = 0.189, Pending_hits = 73645, Reservation_fails = 664605
	L1D_cache_core[4]: Access = 333304, Miss = 62722, Miss_rate = 0.188, Pending_hits = 73971, Reservation_fails = 687684
	L1D_cache_core[5]: Access = 334311, Miss = 62497, Miss_rate = 0.187, Pending_hits = 73473, Reservation_fails = 678844
	L1D_cache_core[6]: Access = 332170, Miss = 62279, Miss_rate = 0.187, Pending_hits = 73555, Reservation_fails = 691294
	L1D_cache_core[7]: Access = 336365, Miss = 63656, Miss_rate = 0.189, Pending_hits = 73327, Reservation_fails = 658305
	L1D_cache_core[8]: Access = 336096, Miss = 63311, Miss_rate = 0.188, Pending_hits = 73377, Reservation_fails = 659437
	L1D_cache_core[9]: Access = 335713, Miss = 62889, Miss_rate = 0.187, Pending_hits = 72988, Reservation_fails = 672045
	L1D_cache_core[10]: Access = 331543, Miss = 61504, Miss_rate = 0.186, Pending_hits = 73029, Reservation_fails = 695447
	L1D_cache_core[11]: Access = 333545, Miss = 62492, Miss_rate = 0.187, Pending_hits = 73180, Reservation_fails = 677821
	L1D_cache_core[12]: Access = 333183, Miss = 62420, Miss_rate = 0.187, Pending_hits = 73261, Reservation_fails = 679077
	L1D_cache_core[13]: Access = 333700, Miss = 61664, Miss_rate = 0.185, Pending_hits = 73302, Reservation_fails = 688723
	L1D_total_cache_accesses = 4680214
	L1D_total_cache_misses = 876383
	L1D_total_cache_miss_rate = 0.1873
	L1D_total_cache_pending_hits = 1027664
	L1D_total_cache_reservation_fails = 9486105
	L1D_cache_data_port_util = 0.091
	L1D_cache_fill_port_util = 0.027
L1C_cache:
	L1C_total_cache_accesses = 0
	L1C_total_cache_misses = 0
	L1C_total_cache_pending_hits = 0
	L1C_total_cache_reservation_fails = 0
L1T_cache:
	L1T_total_cache_accesses = 0
	L1T_total_cache_misses = 0
	L1T_total_cache_pending_hits = 0
	L1T_total_cache_reservation_fails = 0

Total_core_cache_stats:
	Total_core_cache_stats_breakdown[GLOBAL_ACC_R][HIT] = 2709583
	Total_core_cache_stats_breakdown[GLOBAL_ACC_R][HIT_RESERVED] = 1025230
	Total_core_cache_stats_breakdown[GLOBAL_ACC_R][MISS] = 835401
	Total_core_cache_stats_breakdown[GLOBAL_ACC_R][RESERVATION_FAIL] = 9486105
	Total_core_cache_stats_breakdown[GLOBAL_ACC_W][HIT] = 66584
	Total_core_cache_stats_breakdown[GLOBAL_ACC_W][HIT_RESERVED] = 2434
	Total_core_cache_stats_breakdown[GLOBAL_ACC_W][MISS] = 40982
	Total_core_cache_stats_breakdown[INST_ACC_R][HIT] = 15001256
	Total_core_cache_stats_breakdown[INST_ACC_R][MISS] = 4779
	Total_core_cache_stats_breakdown[INST_ACC_R][RESERVATION_FAIL] = 6659
Shader 0 warp_id issue ditsribution:
warp_id:
0, 1, 2, 3, 4, 5, 6, 7, 8, 9, 10, 11, 12, 13, 14, 15, 16, 17, 18, 19, 20, 21, 22, 23, 24, 25, 26, 27, 28, 29, 30, 31, 32, 33, 34, 35, 36, 37, 38, 39, 40, 41, 42, 43, 44, 45, 46, 47, 
distro:
63363, 53051, 52878, 52736, 52168, 51708, 51552, 51078, 49642, 49548, 49568, 49592, 49460, 49460, 49460, 49460, 63524, 53277, 53207, 52521, 52318, 51927, 51634, 51170, 49766, 49715, 49695, 49767, 49599, 49599, 49599, 49599, 26448, 21424, 21288, 21416, 21232, 21196, 21040, 20840, 20040, 20000, 20000, 20032, 19992, 19992, 19992, 19992, 
gpgpu_n_tot_thrd_icount = 893712384
gpgpu_n_tot_w_icount = 27928512
gpgpu_n_stall_shd_mem = 10617691
gpgpu_n_mem_read_local = 0
gpgpu_n_mem_write_local = 0
gpgpu_n_mem_read_global = 835401
gpgpu_n_mem_write_global = 110000
gpgpu_n_mem_texture = 0
gpgpu_n_mem_const = 0
gpgpu_n_load_insn  = 103852029
gpgpu_n_store_insn = 110000
gpgpu_n_shmem_insn = 16256000
gpgpu_n_tex_insn = 0
gpgpu_n_const_mem_insn = 0
gpgpu_n_param_mem_insn = 0
gpgpu_n_shmem_bkconflict = 0
gpgpu_n_cache_bkconflict = 0
gpgpu_n_intrawarp_mshr_merge = 0
gpgpu_n_cmem_portconflict = 0
gpgpu_stall_shd_mem[c_mem][bk_conf] = 0
gpgpu_stall_shd_mem[c_mem][mshr_rc] = 0
gpgpu_stall_shd_mem[c_mem][icnt_rc] = 0
gpgpu_stall_shd_mem[c_mem][data_port_stall] = 0
gpgpu_stall_shd_mem[t_mem][mshr_rc] = 0
gpgpu_stall_shd_mem[t_mem][icnt_rc] = 0
gpgpu_stall_shd_mem[t_mem][data_port_stall] = 0
gpgpu_stall_shd_mem[s_mem][bk_conf] = 0
gpgpu_stall_shd_mem[gl_mem][bk_conf] = 0
gpgpu_stall_shd_mem[gl_mem][coal_stall] = 10617691
gpgpu_stall_shd_mem[gl_mem][data_port_stall] = 0
gpgpu_stall_shd_mem[g_mem_ld][mshr_rc] = 0
gpgpu_stall_shd_mem[g_mem_ld][icnt_rc] = 0
gpgpu_stall_shd_mem[g_mem_ld][wb_icnt_rc] = 0
gpgpu_stall_shd_mem[g_mem_ld][wb_rsrv_fail] = 0
gpgpu_stall_shd_mem[g_mem_st][mshr_rc] = 0
gpgpu_stall_shd_mem[g_mem_st][icnt_rc] = 0
gpgpu_stall_shd_mem[g_mem_st][wb_icnt_rc] = 0
gpgpu_stall_shd_mem[g_mem_st][wb_rsrv_fail] = 0
gpgpu_stall_shd_mem[l_mem_ld][mshr_rc] = 0
gpgpu_stall_shd_mem[l_mem_ld][icnt_rc] = 0
gpgpu_stall_shd_mem[l_mem_ld][wb_icnt_rc] = 0
gpgpu_stall_shd_mem[l_mem_ld][wb_rsrv_fail] = 0
gpgpu_stall_shd_mem[l_mem_st][mshr_rc] = 0
gpgpu_stall_shd_mem[l_mem_st][icnt_rc] = 0
gpgpu_stall_shd_mem[l_mem_ld][wb_icnt_rc] = 0
gpgpu_stall_shd_mem[l_mem_ld][wb_rsrv_fail] = 0
gpu_reg_bank_conflict_stalls = 0
Warp Occupancy Distribution:
Stall:16434791	W0_Idle:1782273	W0_Scoreboard:14866256	W1:654172	W2:8624	W3:8536	W4:8260	W5:8272	W6:8468	W7:8400	W8:8812	W9:8680	W10:8520	W11:8200	W12:8380	W13:8340	W14:8356	W15:11296	W16:2880	W17:2880	W18:2864	W19:2880	W20:2808	W21:2724	W22:2568	W23:2776	W24:2940	W25:2712	W26:2700	W27:2740	W28:1676724	W29:2744	W30:2588	W31:2764	W32:25434904
traffic_breakdown_coretomem[GLOBAL_ACC_R] = 6683208 {8:835401,}
traffic_breakdown_coretomem[GLOBAL_ACC_W] = 4400000 {40:110000,}
traffic_breakdown_coretomem[INST_ACC_R] = 1568 {8:196,}
traffic_breakdown_memtocore[GLOBAL_ACC_R] = 113614536 {136:835401,}
traffic_breakdown_memtocore[GLOBAL_ACC_W] = 880000 {8:110000,}
traffic_breakdown_memtocore[INST_ACC_R] = 26656 {136:196,}
Memory Partition 0: 
Cache L2_bank_000:
MSHR contents

Cache L2_bank_001:
MSHR contents

In Dram Latency Queue (total = 0): 
DRAM[0]: 16 bks, busW=4 BL=8 CL=12, tRRD=2 tCCD=6, tRCD=12 tRAS=28 tRP=12 tRC=40
n_cmd=2844502 n_nop=2647524 n_act=34387 n_pre=34371 n_req=64383 n_rd=126546 n_write=1674 bw_util=0.09015
n_activity=1238403 dram_eff=0.2071
bk0: 8050a 2767751i bk1: 7632a 2770810i bk2: 8252a 2766652i bk3: 8086a 2768238i bk4: 7738a 2770905i bk5: 7826a 2770986i bk6: 8354a 2762178i bk7: 8180a 2763757i bk8: 7830a 2766141i bk9: 7630a 2767687i bk10: 7702a 2768595i bk11: 8014a 2765881i bk12: 7800a 2768615i bk13: 7800a 2767758i bk14: 7948a 2767741i bk15: 7704a 2770379i 
dram_util_bins: 0 0 0 0 0 0 0 0 0 0
dram_eff_bins: 0 0 0 0 0 0 0 0 0 0
mrqq: max=16 avg=0.201718
Memory Partition 1: 
Cache L2_bank_002:
MSHR contents

Cache L2_bank_003:
MSHR contents

In Dram Latency Queue (total = 0): 
DRAM[1]: 16 bks, busW=4 BL=8 CL=12, tRRD=2 tCCD=6, tRCD=12 tRAS=28 tRP=12 tRC=40
n_cmd=2844502 n_nop=2646943 n_act=34536 n_pre=34520 n_req=64530 n_rd=126818 n_write=1685 bw_util=0.09035
n_activity=1242042 dram_eff=0.2069
bk0: 7906a 2768419i bk1: 7838a 2768918i bk2: 8302a 2766735i bk3: 8074a 2767812i bk4: 7868a 2769760i bk5: 7928a 2768645i bk6: 8308a 2763297i bk7: 8148a 2762659i bk8: 7664a 2768715i bk9: 7664a 2768529i bk10: 7698a 2769425i bk11: 8022a 2766299i bk12: 7920a 2766280i bk13: 7658a 2769062i bk14: 8074a 2766149i bk15: 7746a 2768292i 
dram_util_bins: 0 0 0 0 0 0 0 0 0 0
dram_eff_bins: 0 0 0 0 0 0 0 0 0 0
mrqq: max=14 avg=0.200907
Memory Partition 2: 
Cache L2_bank_004:
MSHR contents

Cache L2_bank_005:
MSHR contents

In Dram Latency Queue (total = 0): 
DRAM[2]: 16 bks, busW=4 BL=8 CL=12, tRRD=2 tCCD=6, tRCD=12 tRAS=28 tRP=12 tRC=40
n_cmd=2844502 n_nop=2646833 n_act=34556 n_pre=34540 n_req=64555 n_rd=126910 n_write=1663 bw_util=0.0904
n_activity=1236863 dram_eff=0.2079
bk0: 7832a 2769188i bk1: 7830a 2769377i bk2: 8240a 2767328i bk3: 8072a 2769080i bk4: 7844a 2769818i bk5: 7978a 2768654i bk6: 8232a 2762088i bk7: 8092a 2764109i bk8: 7746a 2767587i bk9: 7812a 2766799i bk10: 7742a 2768441i bk11: 7916a 2767343i bk12: 8044a 2765409i bk13: 7696a 2768425i bk14: 8000a 2766486i bk15: 7834a 2768245i 
dram_util_bins: 0 0 0 0 0 0 0 0 0 0
dram_eff_bins: 0 0 0 0 0 0 0 0 0 0
mrqq: max=10 avg=0.201471
Memory Partition 3: 
Cache L2_bank_006:
MSHR contents

Cache L2_bank_007:
MSHR contents

In Dram Latency Queue (total = 0): 
DRAM[3]: 16 bks, busW=4 BL=8 CL=12, tRRD=2 tCCD=6, tRCD=12 tRAS=28 tRP=12 tRC=40
n_cmd=2844502 n_nop=2645522 n_act=34712 n_pre=34696 n_req=65053 n_rd=127906 n_write=1666 bw_util=0.0911
n_activity=1247557 dram_eff=0.2077
bk0: 7732a 2770356i bk1: 7976a 2768134i bk2: 8320a 2765761i bk3: 8030a 2769517i bk4: 8008a 2768042i bk5: 7910a 2769881i bk6: 8406a 2761286i bk7: 8354a 2761505i bk8: 7712a 2768171i bk9: 7944a 2765774i bk10: 7848a 2767094i bk11: 7938a 2766260i bk12: 8070a 2765482i bk13: 7744a 2768429i bk14: 8052a 2767118i bk15: 7862a 2769023i 
dram_util_bins: 0 0 0 0 0 0 0 0 0 0
dram_eff_bins: 0 0 0 0 0 0 0 0 0 0
mrqq: max=16 avg=0.203098
Memory Partition 4: 
Cache L2_bank_008:
MSHR contents

Cache L2_bank_009:
MSHR contents

In Dram Latency Queue (total = 0): 
DRAM[4]: 16 bks, busW=4 BL=8 CL=12, tRRD=2 tCCD=6, tRCD=12 tRAS=28 tRP=12 tRC=40
n_cmd=2844502 n_nop=2646833 n_act=34446 n_pre=34430 n_req=64671 n_rd=127116 n_write=1677 bw_util=0.09056
n_activity=1242653 dram_eff=0.2073
bk0: 7650a 2770397i bk1: 7958a 2768180i bk2: 8070a 2769087i bk3: 8074a 2768166i bk4: 7902a 2769221i bk5: 7860a 2770439i bk6: 8248a 2763369i bk7: 8440a 2761635i bk8: 7636a 2768446i bk9: 7944a 2766595i bk10: 7962a 2766984i bk11: 7776a 2768139i bk12: 7994a 2766501i bk13: 7784a 2768801i bk14: 7940a 2767139i bk15: 7878a 2768231i 
dram_util_bins: 0 0 0 0 0 0 0 0 0 0
dram_eff_bins: 0 0 0 0 0 0 0 0 0 0
mrqq: max=15 avg=0.202808
Memory Partition 5: 
Cache L2_bank_010:
MSHR contents

Cache L2_bank_011:
MSHR contents

In Dram Latency Queue (total = 0): 
DRAM[5]: 16 bks, busW=4 BL=8 CL=12, tRRD=2 tCCD=6, tRCD=12 tRAS=28 tRP=12 tRC=40
n_cmd=2844502 n_nop=2647436 n_act=34337 n_pre=34321 n_req=64465 n_rd=126756 n_write=1652 bw_util=0.09029
n_activity=1234344 dram_eff=0.2081
bk0: 7584a 2771348i bk1: 8092a 2767282i bk2: 7932a 2770102i bk3: 8102a 2767515i bk4: 7816a 2770703i bk5: 7776a 2771435i bk6: 8212a 2763581i bk7: 8546a 2760034i bk8: 7548a 2769157i bk9: 7940a 2765815i bk10: 8094a 2765089i bk11: 7740a 2768285i bk12: 7880a 2767412i bk13: 7896a 2767033i bk14: 7718a 2769139i bk15: 7880a 2769081i 
dram_util_bins: 0 0 0 0 0 0 0 0 0 0
dram_eff_bins: 0 0 0 0 0 0 0 0 0 0
mrqq: max=11 avg=0.202726

========= L2 cache stats =========
L2_cache_bank[0]: Access = 76528, Miss = 31837, Miss_rate = 0.416, Pending_hits = 496, Reservation_fails = 2859
L2_cache_bank[1]: Access = 76366, Miss = 31436, Miss_rate = 0.412, Pending_hits = 476, Reservation_fails = 1852
L2_cache_bank[2]: Access = 75992, Miss = 31870, Miss_rate = 0.419, Pending_hits = 493, Reservation_fails = 1727
L2_cache_bank[3]: Access = 82348, Miss = 31539, Miss_rate = 0.383, Pending_hits = 503, Reservation_fails = 2189
L2_cache_bank[4]: Access = 75939, Miss = 31840, Miss_rate = 0.419, Pending_hits = 471, Reservation_fails = 1530
L2_cache_bank[5]: Access = 80502, Miss = 31615, Miss_rate = 0.393, Pending_hits = 527, Reservation_fails = 2036
L2_cache_bank[6]: Access = 81754, Miss = 32074, Miss_rate = 0.392, Pending_hits = 492, Reservation_fails = 1753
L2_cache_bank[7]: Access = 79905, Miss = 31879, Miss_rate = 0.399, Pending_hits = 484, Reservation_fails = 1774
L2_cache_bank[8]: Access = 76955, Miss = 31701, Miss_rate = 0.412, Pending_hits = 500, Reservation_fails = 1946
L2_cache_bank[9]: Access = 79870, Miss = 31857, Miss_rate = 0.399, Pending_hits = 475, Reservation_fails = 2088
L2_cache_bank[10]: Access = 76447, Miss = 31392, Miss_rate = 0.411, Pending_hits = 481, Reservation_fails = 1882
L2_cache_bank[11]: Access = 82991, Miss = 31986, Miss_rate = 0.385, Pending_hits = 486, Reservation_fails = 2050
L2_total_cache_accesses = 945597
L2_total_cache_misses = 381026
L2_total_cache_miss_rate = 0.4029
L2_total_cache_pending_hits = 5884
L2_total_cache_reservation_fails = 23686
L2_total_cache_breakdown:
	L2_cache_stats_breakdown[GLOBAL_ACC_R][HIT] = 451792
	L2_cache_stats_breakdown[GLOBAL_ACC_R][HIT_RESERVED] = 4036
	L2_cache_stats_breakdown[GLOBAL_ACC_R][MISS] = 379573
	L2_cache_stats_breakdown[GLOBAL_ACC_R][RESERVATION_FAIL] = 14041
	L2_cache_stats_breakdown[GLOBAL_ACC_W][HIT] = 106755
	L2_cache_stats_breakdown[GLOBAL_ACC_W][HIT_RESERVED] = 1806
	L2_cache_stats_breakdown[GLOBAL_ACC_W][MISS] = 1439
	L2_cache_stats_breakdown[GLOBAL_ACC_W][RESERVATION_FAIL] = 8613
	L2_cache_stats_breakdown[INST_ACC_R][HIT] = 140
	L2_cache_stats_breakdown[INST_ACC_R][HIT_RESERVED] = 42
	L2_cache_stats_breakdown[INST_ACC_R][MISS] = 14
	L2_cache_stats_breakdown[INST_ACC_R][RESERVATION_FAIL] = 1032
L2_cache_data_port_util = 0.074
L2_cache_fill_port_util = 0.058

icnt_total_pkts_mem_to_simt=4287985
icnt_total_pkts_simt_to_mem=1055597
LD_mem_lat_dist  0 0 0 0 0 0 0 0 0 0 0 0 0 0 0 0 0 0 0 0 0 0 0 0 0 0 0
ST_mem_lat_dist  0 0 0 0 0 0 0 0 0 0 0 0 0 0 0 0 0 0 0 0 0 0 0 0 0 0 0
----------------------------Interconnect-DETAILS--------------------------------
Class 0:
Packet latency average = 23.2679
	minimum = 6
	maximum = 182
Network latency average = 19.2558
	minimum = 6
	maximum = 144
Slowest packet = 947524
Flit latency average = 21.2046
	minimum = 6
	maximum = 140
Slowest flit = 5257739
Fragmentation average = 0
	minimum = 0
	maximum = 0
Injected packet rate average = 0.0357608
	minimum = 0.0327255 (at node 10)
	maximum = 0.0411511 (at node 25)
Accepted packet rate average = 0.0357608
	minimum = 0.0327255 (at node 10)
	maximum = 0.0411511 (at node 25)
Injected flit rate average = 0.101608
	minimum = 0.0362222 (at node 10)
	maximum = 0.189388 (at node 25)
Accepted flit rate average= 0.101608
	minimum = 0.0399412 (at node 24)
	maximum = 0.153944 (at node 4)
Injected packet length average = 2.84132
Accepted packet length average = 2.84132
Total in-flight flits = 0 (0 measured)
====== Overall Traffic Statistics ======
====== Traffic class 0 ======
Packet latency average = 22.8958 (2 samples)
	minimum = 6 (2 samples)
	maximum = 176.5 (2 samples)
Network latency average = 19.1581 (2 samples)
	minimum = 6 (2 samples)
	maximum = 149 (2 samples)
Flit latency average = 21.199 (2 samples)
	minimum = 6 (2 samples)
	maximum = 147 (2 samples)
Fragmentation average = 4.38729e-05 (2 samples)
	minimum = 0 (2 samples)
	maximum = 41.5 (2 samples)
Injected packet rate average = 0.0335066 (2 samples)
	minimum = 0.0306921 (2 samples)
	maximum = 0.0382653 (2 samples)
Accepted packet rate average = 0.0335066 (2 samples)
	minimum = 0.0306921 (2 samples)
	maximum = 0.0382653 (2 samples)
Injected flit rate average = 0.0947088 (2 samples)
	minimum = 0.0342701 (2 samples)
	maximum = 0.174567 (2 samples)
Accepted flit rate average = 0.0947088 (2 samples)
	minimum = 0.0377996 (2 samples)
	maximum = 0.143293 (2 samples)
Injected packet size average = 2.82658 (2 samples)
Accepted packet size average = 2.82658 (2 samples)
Hops average = 1 (2 samples)
----------------------------END-of-Interconnect-DETAILS-------------------------


gpgpu_simulation_time = 0 days, 0 hrs, 26 min, 53 sec (1613 sec)
gpgpu_simulation_rate = 469230 (inst/sec)
gpgpu_simulation_rate = 1352 (cycle/sec)
GPGPU-Sim: synchronize waiting for inactive GPU simulation
GPGPU-Sim API: Stream Manager State
GPGPU-Sim: detected inactive GPU simulation thread
Time spent in different stages of GPU_CUDA KERNEL:
 0.000012000000 s,  0.000001503342 % : GPU: SET DEVICE / DRIVER INIT
 0.000000000000 s,  0.000000000000 % : GPU MEM: ALO
 0.516704976559 s,  0.064732015133 % : GPU MEM: COPY IN
797.704162597656 s, 99.935165405273 % : GPU: KERNEL
 0.000889000017 s,  0.000111372559 % : GPU MEM: COPY OUT
 0.000000000000 s,  0.000000000000 % : GPU MEM: FRE
Total time:
798.221740722656 s
> > > > > > > > > > 
