

        *** GPGPU-Sim Simulator Version 3.2.2  [build 17315] ***


GPGPU-Sim PTX: simulation mode 0 (can change with PTX_SIM_MODE_FUNC environment variable:
               1=functional simulation only, 0=detailed performance simulator)
GPGPU-Sim: Configuration options:

-network_mode                           1 # Interconnection network mode
-inter_config_file   config_fermi_islip.icnt # Interconnection network config file
-gpgpu_ptx_use_cuobjdump                    1 # Use cuobjdump to extract ptx and sass from binaries
-gpgpu_experimental_lib_support                    0 # Try to extract code from cuda libraries [Broken because of unknown cudaGetExportTable]
-gpgpu_ptx_convert_to_ptxplus                    1 # Convert SASS (native ISA) to ptxplus and run ptxplus
-gpgpu_ptx_force_max_capability                   20 # Force maximum compute capability
-gpgpu_ptx_inst_debug_to_file                    0 # Dump executed instructions' debug information to file
-gpgpu_ptx_inst_debug_file       inst_debug.txt # Executed instructions' debug output file
-gpgpu_ptx_inst_debug_thread_uid                    1 # Thread UID for executed instructions' debug output
-gpgpu_simd_model                       1 # 1 = post-dominator
-gpgpu_shader_core_pipeline              1536:32 # shader core pipeline config, i.e., {<nthread>:<warpsize>}
-gpgpu_tex_cache:l1  4:128:24,L:R:m:N,F:128:4,128:2 # per-shader L1 texture cache  (READ-ONLY) config  {<nsets>:<bsize>:<assoc>,<rep>:<wr>:<alloc>:<wr_alloc>,<mshr>:<N>:<merge>,<mq>:<rf>}
-gpgpu_const_cache:l1 64:64:2,L:R:f:N,A:2:32,4 # per-shader L1 constant memory cache  (READ-ONLY) config  {<nsets>:<bsize>:<assoc>,<rep>:<wr>:<alloc>:<wr_alloc>,<mshr>:<N>:<merge>,<mq>} 
-gpgpu_cache:il1     4:128:4,L:R:f:N,A:2:32,4 # shader L1 instruction cache config  {<nsets>:<bsize>:<assoc>,<rep>:<wr>:<alloc>:<wr_alloc>,<mshr>:<N>:<merge>,<mq>} 
-gpgpu_cache:dl1     32:128:4,L:L:m:N,A:32:8,8 # per-shader L1 data cache config  {<nsets>:<bsize>:<assoc>,<rep>:<wr>:<alloc>:<wr_alloc>,<mshr>:<N>:<merge>,<mq> | none}
-gpgpu_cache:dl1PrefL1                 none # per-shader L1 data cache config  {<nsets>:<bsize>:<assoc>,<rep>:<wr>:<alloc>:<wr_alloc>,<mshr>:<N>:<merge>,<mq> | none}
-gpgpu_cache:dl1PreShared                 none # per-shader L1 data cache config  {<nsets>:<bsize>:<assoc>,<rep>:<wr>:<alloc>:<wr_alloc>,<mshr>:<N>:<merge>,<mq> | none}
-gmem_skip_L1D                          0 # global memory access skip L1D cache (implements -Xptxas -dlcm=cg, default=no skip)
-gpgpu_perfect_mem                      0 # enable perfect memory mode (no cache miss)
-n_regfile_gating_group                    4 # group of lanes that should be read/written together)
-gpgpu_clock_gated_reg_file                    0 # enable clock gated reg file for power calculations
-gpgpu_clock_gated_lanes                    0 # enable clock gated lanes for power calculations
-gpgpu_shader_registers                32768 # Number of registers per shader core. Limits number of concurrent CTAs. (default 8192)
-gpgpu_shader_cta                       8 # Maximum number of concurrent CTAs in shader (default 8)
-gpgpu_n_clusters                      14 # number of processing clusters
-gpgpu_n_cores_per_cluster                    1 # number of simd cores per cluster
-gpgpu_n_cluster_ejection_buffer_size                    8 # number of packets in ejection buffer
-gpgpu_n_ldst_response_buffer_size                    2 # number of response packets in ld/st unit ejection buffer
-gpgpu_shmem_size                   16384 # Size of shared memory per shader core (default 16kB)
-gpgpu_shmem_size                   49152 # Size of shared memory per shader core (default 16kB)
-gpgpu_shmem_size_PrefL1                16384 # Size of shared memory per shader core (default 16kB)
-gpgpu_shmem_size_PrefShared                16384 # Size of shared memory per shader core (default 16kB)
-gpgpu_shmem_num_banks                   32 # Number of banks in the shared memory in each shader core (default 16)
-gpgpu_shmem_limited_broadcast                    0 # Limit shared memory to do one broadcast per cycle (default on)
-gpgpu_shmem_warp_parts                    1 # Number of portions a warp is divided into for shared memory bank conflict check 
-gpgpu_warpdistro_shader                   -1 # Specify which shader core to collect the warp size distribution from
-gpgpu_warp_issue_shader                    0 # Specify which shader core to collect the warp issue distribution from
-gpgpu_local_mem_map                    1 # Mapping from local memory space address to simulated GPU physical address space (default = enabled)
-gpgpu_num_reg_banks                   16 # Number of register banks (default = 8)
-gpgpu_reg_bank_use_warp_id                    0 # Use warp ID in mapping registers to banks (default = off)
-gpgpu_operand_collector_num_units_sp                    6 # number of collector units (default = 4)
-gpgpu_operand_collector_num_units_sfu                    8 # number of collector units (default = 4)
-gpgpu_operand_collector_num_units_mem                    2 # number of collector units (default = 2)
-gpgpu_operand_collector_num_units_gen                    0 # number of collector units (default = 0)
-gpgpu_operand_collector_num_in_ports_sp                    2 # number of collector unit in ports (default = 1)
-gpgpu_operand_collector_num_in_ports_sfu                    1 # number of collector unit in ports (default = 1)
-gpgpu_operand_collector_num_in_ports_mem                    1 # number of collector unit in ports (default = 1)
-gpgpu_operand_collector_num_in_ports_gen                    0 # number of collector unit in ports (default = 0)
-gpgpu_operand_collector_num_out_ports_sp                    2 # number of collector unit in ports (default = 1)
-gpgpu_operand_collector_num_out_ports_sfu                    1 # number of collector unit in ports (default = 1)
-gpgpu_operand_collector_num_out_ports_mem                    1 # number of collector unit in ports (default = 1)
-gpgpu_operand_collector_num_out_ports_gen                    0 # number of collector unit in ports (default = 0)
-gpgpu_coalesce_arch                   13 # Coalescing arch (default = 13, anything else is off for now)
-gpgpu_num_sched_per_core                    2 # Number of warp schedulers per core
-gpgpu_max_insn_issue_per_warp                    1 # Max number of instructions that can be issued per warp in one cycle by scheduler
-gpgpu_simt_core_sim_order                    1 # Select the simulation order of cores in a cluster (0=Fix, 1=Round-Robin)
-gpgpu_pipeline_widths        2,1,1,2,1,1,2 # Pipeline widths ID_OC_SP,ID_OC_SFU,ID_OC_MEM,OC_EX_SP,OC_EX_SFU,OC_EX_MEM,EX_WB
-gpgpu_num_sp_units                     2 # Number of SP units (default=1)
-gpgpu_num_sfu_units                    1 # Number of SF units (default=1)
-gpgpu_num_mem_units                    1 # Number if ldst units (default=1) WARNING: not hooked up to anything
-gpgpu_scheduler                      lrr # Scheduler configuration: < lrr | gto | two_level_active > If two_level_active:<num_active_warps>:<inner_prioritization>:<outer_prioritization>For complete list of prioritization values see shader.h enum scheduler_prioritization_typeDefault: gto
-gpgpu_dram_scheduler                    1 # 0 = fifo, 1 = FR-FCFS (defaul)
-gpgpu_dram_partition_queues              8:8:8:8 # i2$:$2d:d2$:$2i
-l2_ideal                               0 # Use a ideal L2 cache that always hit
-gpgpu_cache:dl2     64:128:8,L:B:m:W,A:32:4,4:0,32 # unified banked L2 data cache config  {<nsets>:<bsize>:<assoc>,<rep>:<wr>:<alloc>:<wr_alloc>,<mshr>:<N>:<merge>,<mq>}
-gpgpu_cache:dl2_texture_only                    0 # L2 cache used for texture only
-gpgpu_n_mem                            6 # number of memory modules (e.g. memory controllers) in gpu
-gpgpu_n_sub_partition_per_mchannel                    2 # number of memory subpartition in each memory module
-gpgpu_n_mem_per_ctrlr                    2 # number of memory chips per memory controller
-gpgpu_memlatency_stat                    0 # track and display latency statistics 0x2 enables MC, 0x4 enables queue logs
-gpgpu_frfcfs_dram_sched_queue_size                   16 # 0 = unlimited (default); # entries per chip
-gpgpu_dram_return_queue_size                  114 # 0 = unlimited (default); # entries per chip
-gpgpu_dram_buswidth                    4 # default = 4 bytes (8 bytes per cycle at DDR)
-gpgpu_dram_burst_length                    8 # Burst length of each DRAM request (default = 4 data bus cycle)
-dram_data_command_freq_ratio                    4 # Frequency ratio between DRAM data bus and command bus (default = 2 times, i.e. DDR)
-gpgpu_dram_timing_opt nbk=16:CCD=2:RRD=6:RCD=12:RAS=28:RP=12:RC=40: CL=12:WL=4:CDLR=5:WR=12:nbkgrp=4:CCDL=3:RTPL=2 # DRAM timing parameters = {nbk:tCCD:tRRD:tRCD:tRAS:tRP:tRC:CL:WL:tCDLR:tWR:nbkgrp:tCCDL:tRTPL}
-rop_latency                            2 # ROP queue latency (default 85)
-dram_latency                         100 # DRAM latency (default 30)
-gpgpu_mem_addr_mapping dramid@8;00000000.00000000.00000000.00000000.0000RRRR.RRRRRRRR.BBBCCCCB.CCSSSSSS # mapping memory address to dram model {dramid@<start bit>;<memory address map>}
-gpgpu_mem_addr_test                    0 # run sweep test to check address mapping for aliased address
-gpgpu_mem_address_mask                    1 # 0 = old addressing mask, 1 = new addressing mask, 2 = new add. mask + flipped bank sel and chip sel bits
-gpuwattch_xml_file         gpuwattch.xml # GPUWattch XML file
-power_simulation_enabled                    0 # Turn on power simulator (1=On, 0=Off)
-power_per_cycle_dump                    0 # Dump detailed power output each cycle
-power_trace_enabled                    0 # produce a file for the power trace (1=On, 0=Off)
-power_trace_zlevel                     6 # Compression level of the power trace output log (0=no comp, 9=highest)
-steady_power_levels_enabled                    0 # produce a file for the steady power levels (1=On, 0=Off)
-steady_state_definition                  8:4 # allowed deviation:number of samples
-gpgpu_max_cycle                        0 # terminates gpu simulation early (0 = no limit)
-gpgpu_max_insn                         0 # terminates gpu simulation early (0 = no limit)
-gpgpu_max_cta                          0 # terminates gpu simulation early (0 = no limit)
-gpgpu_runtime_stat             5000000:0 # display runtime statistics such as dram utilization {<freq>:<flag>}
-liveness_message_freq                    1 # Minimum number of seconds between simulation liveness messages (0 = always print)
-gpgpu_flush_l1_cache                    0 # Flush L1 cache at the end of each kernel call
-gpgpu_flush_l2_cache                    0 # Flush L2 cache at the end of each kernel call
-gpgpu_deadlock_detect                    1 # Stop the simulation at deadlock (1=on (default), 0=off)
-gpgpu_ptx_instruction_classification                    0 # if enabled will classify ptx instruction types per kernel (Max 255 kernels now)
-gpgpu_ptx_sim_mode                     0 # Select between Performance (default) or Functional simulation (1)
-gpgpu_clock_domains 575.0:575.0:575.0:750.0 # Clock Domain Frequencies in MhZ {<Core Clock>:<ICNT Clock>:<L2 Clock>:<DRAM Clock>}
-gpgpu_max_concurrent_kernel                    8 # maximum kernels that can run concurrently on GPU
-gpgpu_cflog_interval                    0 # Interval between each snapshot in control flow logger
-visualizer_enabled                     0 # Turn on visualizer output (1=On, 0=Off)
-visualizer_outputfile                 NULL # Specifies the output log file for visualizer
-visualizer_zlevel                      6 # Compression level of the visualizer output log (0=no comp, 9=highest)
-trace_enabled                          0 # Turn on traces
-trace_components                    none # comma seperated list of traces to enable. Complete list found in trace_streams.tup. Default none
-trace_sampling_core                    0 # The core which is printed using CORE_DPRINTF. Default 0
-trace_sampling_memory_partition                   -1 # The memory partition which is printed using MEMPART_DPRINTF. Default -1 (i.e. all)
-enable_ptx_file_line_stats                    0 # Turn on PTX source line statistic profiling. (1 = On)
-ptx_line_stats_filename gpgpu_inst_stats.txt # Output file for PTX source line statistics.
-save_embedded_ptx                      0 # saves ptx files embedded in binary as <n>.ptx
-keep                                   0 # keep intermediate files created by GPGPU-Sim when interfacing with external programs
-gpgpu_ptx_save_converted_ptxplus                    1 # Saved converted ptxplus to a file
-ptx_opcode_latency_int         4,13,4,5,145 # Opcode latencies for integers <ADD,MAX,MUL,MAD,DIV>Default 1,1,19,25,145
-ptx_opcode_latency_fp          4,13,4,5,39 # Opcode latencies for single precision floating points <ADD,MAX,MUL,MAD,DIV>Default 1,1,1,1,30
-ptx_opcode_latency_dp         8,19,8,8,330 # Opcode latencies for double precision floating points <ADD,MAX,MUL,MAD,DIV>Default 8,8,8,8,335
-ptx_opcode_initiation_int            1,2,2,1,8 # Opcode initiation intervals for integers <ADD,MAX,MUL,MAD,DIV>Default 1,1,4,4,32
-ptx_opcode_initiation_fp            1,2,1,1,4 # Opcode initiation intervals for single precision floating points <ADD,MAX,MUL,MAD,DIV>Default 1,1,1,1,5
-ptx_opcode_initiation_dp         8,16,8,8,130 # Opcode initiation intervals for double precision floating points <ADD,MAX,MUL,MAD,DIV>Default 8,8,8,8,130
DRAM Timing Options:
nbk                                    16 # number of banks
CCD                                     2 # column to column delay
RRD                                     6 # minimal delay between activation of rows in different banks
RCD                                    12 # row to column delay
RAS                                    28 # time needed to activate row
RP                                     12 # time needed to precharge (deactivate) row
RC                                     40 # row cycle time
CDLR                                    5 # switching from write to read (changes tWTR)
WR                                     12 # last data-in to row precharge
CL                                     12 # CAS latency
WL                                      4 # Write latency
nbkgrp                                  4 # number of bank groups
CCDL                                    3 # column to column delay between accesses to different bank groups
RTPL                                    2 # read to precharge delay between accesses to different bank groups
Total number of memory sub partition = 12
addr_dec_mask[CHIP]  = 0000000000000000 	high:64 low:0
addr_dec_mask[BK]    = 000000000000e100 	high:16 low:8
addr_dec_mask[ROW]   = 000000000fff0000 	high:28 low:16
addr_dec_mask[COL]   = 0000000000001eff 	high:13 low:0
addr_dec_mask[BURST] = 000000000000003f 	high:6 low:0
sub_partition_id_mask = 0000000000000100
GPGPU-Sim uArch: clock freqs: 575000000.000000:575000000.000000:575000000.000000:750000000.000000
GPGPU-Sim uArch: clock periods: 0.00000000173913043478:0.00000000173913043478:0.00000000173913043478:0.00000000133333333333
*** Initializing Memory Statistics ***
GPGPU-Sim uArch: interconnect node map (shaderID+MemID to icntID)
GPGPU-Sim uArch: Memory nodes ID start from index: 14
GPGPU-Sim uArch:    0   1   2   3   4
GPGPU-Sim uArch:    5   6   7   8   9
GPGPU-Sim uArch:   10  11  12  13  14
GPGPU-Sim uArch:   15  16  17  18  19
GPGPU-Sim uArch:   20  21  22  23  24
GPGPU-Sim uArch:   25
GPGPU-Sim uArch: interconnect node reverse map (icntID to shaderID+MemID)
GPGPU-Sim uArch: Memory nodes start from ID: 14
GPGPU-Sim uArch:    0   1   2   3   4
GPGPU-Sim uArch:    5   6   7   8   9
GPGPU-Sim uArch:   10  11  12  13  14
GPGPU-Sim uArch:   15  16  17  18  19
GPGPU-Sim uArch:   20  21  22  23  24
GPGPU-Sim uArch:   25
d6c77f0bbd11a2a8055098b2a90a2cbf  /home/vishwesh/Desktop/Register_Sharing_Pbm/rodinia_2.4/cuda/backprop/backprop
GPGPU-Sim uArch: performance model initialization complete.
GPGPU-Sim PTX: __cudaRegisterFatBinary, fat_cubin_handle = 1, filename=backprop_cuda.cu
self exe links to: /home/vishwesh/Desktop/Register_Sharing_Pbm/rodinia_2.4/cuda/backprop/backprop
Running md5sum using "md5sum /home/vishwesh/Desktop/Register_Sharing_Pbm/rodinia_2.4/cuda/backprop/backprop "
Running cuobjdump using "$CUDA_INSTALL_PATH/bin/cuobjdump -ptx -elf -sass /home/vishwesh/Desktop/Register_Sharing_Pbm/rodinia_2.4/cuda/backprop/backprop > _cuobjdump_complete_output_PzUTCW"
Parsing file _cuobjdump_complete_output_PzUTCW
######### cuobjdump parser ########
## Adding new section ELF
Adding arch: sm_10
Adding identifier: backprop_cuda.cu
## Adding new section PTX
Adding ptx filename: _cuobjdump_1.ptx
Adding arch: sm_10
Adding identifier: backprop_cuda.cu
Done parsing!!!
GPGPU-Sim: WARNING: Capability >= 20 are not supported in PTXPlus
	Setting forced_max_capability to 19
GPGPU-Sim PTX: __cudaRegisterFunction _Z24bpnn_adjust_weights_cudaPfiS_iS_S_ : hostFun 0x0x402120, fat_cubin_handle = 1
GPGPU-Sim PTX: converting EMBEDDED .ptx file to ptxplus 
RUNNING cuobjdump_to_ptxplus ...
Parsing .elf file _cuobjdump_1.elf
()



Finished parsing .elf file _cuobjdump_1.elf
Parsing .ptx file _cuobjdump_1.ptx
Finished parsing .ptx file _cuobjdump_1.ptx
Parsing .sass file _cuobjdump_1.sass
Finished parsing .sass file _cuobjdump_1.sass
DONE. 
GPGPU-Sim PTX: calling cuobjdump_to_ptxplus
commandline: $GPGPUSIM_ROOT/build/$GPGPUSIM_CONFIG/cuobjdump_to_ptxplus/cuobjdump_to_ptxplus _cuobjdump_1.ptx _cuobjdump_1.sass _cuobjdump_1.elf _ptxplus_o94chP
GPGPU-Sim PTX: DONE converting EMBEDDED .ptx file to ptxplus 
GPGPU-Sim PTX: allocating constant region for "constant1_Z22bpnn_layerforward_CUDAPfS_S_S_ii" from 0x100 to 0x10c (global memory space) 1
GPGPU-Sim PTX: allocating constant region for "constant1_Z24bpnn_adjust_weights_cudaPfiS_iS_S_" from 0x110 to 0x118 (global memory space) 2
GPGPU-Sim PTX: instruction assembly for function '_Z24bpnn_adjust_weights_cudaPfiS_iS_S_'...   done.
GPGPU-Sim PTX: finding reconvergence points for '_Z24bpnn_adjust_weights_cudaPfiS_iS_S_'...
GPGPU-Sim PTX: Warning detected predicated return/exit.
GPGPU-Sim PTX: Finding dominators for '_Z24bpnn_adjust_weights_cudaPfiS_iS_S_'...
GPGPU-Sim PTX: Finding immediate dominators for '_Z24bpnn_adjust_weights_cudaPfiS_iS_S_'...
GPGPU-Sim PTX: Finding postdominators for '_Z24bpnn_adjust_weights_cudaPfiS_iS_S_'...
GPGPU-Sim PTX: Finding immediate postdominators for '_Z24bpnn_adjust_weights_cudaPfiS_iS_S_'...
GPGPU-Sim PTX: pre-decoding instructions for '_Z24bpnn_adjust_weights_cudaPfiS_iS_S_'...
GPGPU-Sim PTX: reconvergence points for _Z24bpnn_adjust_weights_cudaPfiS_iS_S_...
GPGPU-Sim PTX: ... end of reconvergence points for _Z24bpnn_adjust_weights_cudaPfiS_iS_S_
GPGPU-Sim PTX: ... done pre-decoding instructions for '_Z24bpnn_adjust_weights_cudaPfiS_iS_S_'.
GPGPU-Sim PTX: PTX uses two scalar type intruction with literal operand.
GPGPU-Sim PTX: instruction assembly for function '_Z22bpnn_layerforward_CUDAPfS_S_S_ii'...   done.
GPGPU-Sim PTX: finding reconvergence points for '_Z22bpnn_layerforward_CUDAPfS_S_S_ii'...
GPGPU-Sim PTX: Warning detected predicated return/exit.
GPGPU-Sim PTX: Finding dominators for '_Z22bpnn_layerforward_CUDAPfS_S_S_ii'...
GPGPU-Sim PTX: Finding immediate dominators for '_Z22bpnn_layerforward_CUDAPfS_S_S_ii'...
GPGPU-Sim PTX: Finding postdominators for '_Z22bpnn_layerforward_CUDAPfS_S_S_ii'...
GPGPU-Sim PTX: Finding immediate postdominators for '_Z22bpnn_layerforward_CUDAPfS_S_S_ii'...
GPGPU-Sim PTX: pre-decoding instructions for '_Z22bpnn_layerforward_CUDAPfS_S_S_ii'...
GPGPU-Sim PTX: reconvergence points for _Z22bpnn_layerforward_CUDAPfS_S_S_ii...
GPGPU-Sim PTX:  1 (potential) branch divergence @  PC=0x290 (_1.ptx:144) @$p1.neu bra l0x00000078;
GPGPU-Sim PTX:    immediate post dominator      @  PC=0x2d8 (_1.ptx:153) l0x00000078: nop;
GPGPU-Sim PTX:  2 (potential) branch divergence @  PC=0x400 (_1.ptx:194) @$p1.ne bra l0x00000200;
GPGPU-Sim PTX:    immediate post dominator      @  PC=0x460 (_1.ptx:206) l0x00000200: nop;
GPGPU-Sim PTX:  3 (potential) branch divergence @  PC=0x488 (_1.ptx:211) @$p1.ne bra l0x00000160;
GPGPU-Sim PTX:    immediate post dominator      @  PC=0x490 (_1.ptx:212) add.u32 $r3, $r6, 0x00000008;
GPGPU-Sim PTX: ... end of reconvergence points for _Z22bpnn_layerforward_CUDAPfS_S_S_ii
GPGPU-Sim PTX: ... done pre-decoding instructions for '_Z22bpnn_layerforward_CUDAPfS_S_S_ii'.
GPGPU-Sim PTX: finished parsing EMBEDDED .ptx file _1.ptx
Adding _cuobjdump_1.ptx with cubin handle 1
GPGPU-Sim PTX: extracting embedded .ptx to temporary file "_ptx_YJ5YWH"
Running: cat _ptx_YJ5YWH | sed 's/.version 1.5/.version 1.4/' | sed 's/, texmode_independent//' | sed 's/\(\.extern \.const\[1\] .b8 \w\+\)\[\]/\1\[1\]/' | sed 's/const\[.\]/const\[0\]/g' > _ptx2_GXhMCA
GPGPU-Sim PTX: generating ptxinfo using "$CUDA_INSTALL_PATH/bin/ptxas --gpu-name=sm_20 -v _ptx2_GXhMCA --output-file  /dev/null 2> _ptx_YJ5YWHinfo"
GPGPU-Sim PTX: Kernel '_Z24bpnn_adjust_weights_cudaPfiS_iS_S_' : regs=22, lmem=0, smem=0, cmem=80
GPGPU-Sim PTX: Kernel '_Z22bpnn_layerforward_CUDAPfS_S_S_ii' : regs=11, lmem=0, smem=1088, cmem=72
GPGPU-Sim PTX: removing ptxinfo using "rm -f _ptx_YJ5YWH _ptx2_GXhMCA _ptx_YJ5YWHinfo"
GPGPU-Sim PTX: loading globals with explicit initializers... 
GPGPU-Sim PTX: finished loading globals (0 bytes total).
GPGPU-Sim PTX: loading constants with explicit initializers...  done.
GPGPU-Sim PTX: __cudaRegisterFunction _Z22bpnn_layerforward_CUDAPfS_S_S_ii : hostFun 0x0x402210, fat_cubin_handle = 1
Random number generator seed: 7
Input layer size : 65536
Starting training kernel
Performing GPU computation

GPGPU-Sim PTX: cudaLaunch for 0x0x402210 (mode=performance simulation) on stream 0
GPGPU-Sim PTX: pushing kernel '_Z22bpnn_layerforward_CUDAPfS_S_S_ii' to stream 0, gridDim= (1,4096,1) blockDim = (16,16,1) 
kernel '_Z22bpnn_layerforward_CUDAPfS_S_S_ii' transfer to GPU hardware scheduler
GPGPU-Sim uArch: Shader 1 bind to kernel 1 '_Z22bpnn_layerforward_CUDAPfS_S_S_ii'
GPGPU-Sim uArch: CTA/core = 6, limited by: threads
GPGPU-Sim uArch: core:  1, cta: 0 initialized @(1,0)
GPGPU-Sim uArch: Shader 2 bind to kernel 1 '_Z22bpnn_layerforward_CUDAPfS_S_S_ii'
GPGPU-Sim uArch: core:  2, cta: 0 initialized @(1,0)
GPGPU-Sim uArch: Shader 3 bind to kernel 1 '_Z22bpnn_layerforward_CUDAPfS_S_S_ii'
GPGPU-Sim uArch: core:  3, cta: 0 initialized @(1,0)
GPGPU-Sim uArch: Shader 4 bind to kernel 1 '_Z22bpnn_layerforward_CUDAPfS_S_S_ii'
GPGPU-Sim uArch: core:  4, cta: 0 initialized @(1,0)
GPGPU-Sim uArch: Shader 5 bind to kernel 1 '_Z22bpnn_layerforward_CUDAPfS_S_S_ii'
GPGPU-Sim uArch: core:  5, cta: 0 initialized @(1,0)
GPGPU-Sim uArch: Shader 6 bind to kernel 1 '_Z22bpnn_layerforward_CUDAPfS_S_S_ii'
GPGPU-Sim uArch: core:  6, cta: 0 initialized @(1,0)
GPGPU-Sim uArch: Shader 7 bind to kernel 1 '_Z22bpnn_layerforward_CUDAPfS_S_S_ii'
GPGPU-Sim uArch: core:  7, cta: 0 initialized @(1,0)
GPGPU-Sim uArch: Shader 8 bind to kernel 1 '_Z22bpnn_layerforward_CUDAPfS_S_S_ii'
GPGPU-Sim uArch: core:  8, cta: 0 initialized @(1,0)
GPGPU-Sim uArch: Shader 9 bind to kernel 1 '_Z22bpnn_layerforward_CUDAPfS_S_S_ii'
GPGPU-Sim uArch: core:  9, cta: 0 initialized @(1,0)
GPGPU-Sim uArch: Shader 10 bind to kernel 1 '_Z22bpnn_layerforward_CUDAPfS_S_S_ii'
GPGPU-Sim uArch: core: 10, cta: 0 initialized @(1,0)
GPGPU-Sim uArch: Shader 11 bind to kernel 1 '_Z22bpnn_layerforward_CUDAPfS_S_S_ii'
GPGPU-Sim uArch: core: 11, cta: 0 initialized @(1,0)
GPGPU-Sim uArch: Shader 12 bind to kernel 1 '_Z22bpnn_layerforward_CUDAPfS_S_S_ii'
GPGPU-Sim uArch: core: 12, cta: 0 initialized @(1,0)
GPGPU-Sim uArch: Shader 13 bind to kernel 1 '_Z22bpnn_layerforward_CUDAPfS_S_S_ii'
GPGPU-Sim uArch: core: 13, cta: 0 initialized @(1,0)
GPGPU-Sim uArch: Shader 0 bind to kernel 1 '_Z22bpnn_layerforward_CUDAPfS_S_S_ii'
GPGPU-Sim uArch: core:  0, cta: 0 initialized @(1,0)
GPGPU-Sim uArch: core:  1, cta: 1 initialized @(2,0)
GPGPU-Sim uArch: core:  2, cta: 1 initialized @(2,0)
GPGPU-Sim uArch: core:  3, cta: 1 initialized @(2,0)
GPGPU-Sim uArch: core:  4, cta: 1 initialized @(2,0)
GPGPU-Sim uArch: core:  5, cta: 1 initialized @(2,0)
GPGPU-Sim uArch: core:  6, cta: 1 initialized @(2,0)
GPGPU-Sim uArch: core:  7, cta: 1 initialized @(2,0)
GPGPU-Sim uArch: core:  8, cta: 1 initialized @(2,0)
GPGPU-Sim uArch: core:  9, cta: 1 initialized @(2,0)
GPGPU-Sim uArch: core: 10, cta: 1 initialized @(2,0)
GPGPU-Sim uArch: core: 11, cta: 1 initialized @(2,0)
GPGPU-Sim uArch: core: 12, cta: 1 initialized @(2,0)
GPGPU-Sim uArch: core: 13, cta: 1 initialized @(2,0)
GPGPU-Sim uArch: core:  0, cta: 1 initialized @(2,0)
GPGPU-Sim uArch: core:  1, cta: 2 initialized @(3,0)
GPGPU-Sim uArch: core:  2, cta: 2 initialized @(3,0)
GPGPU-Sim uArch: core:  3, cta: 2 initialized @(3,0)
GPGPU-Sim uArch: core:  4, cta: 2 initialized @(3,0)
GPGPU-Sim uArch: core:  5, cta: 2 initialized @(3,0)
GPGPU-Sim uArch: core:  6, cta: 2 initialized @(3,0)
GPGPU-Sim uArch: core:  7, cta: 2 initialized @(3,0)
GPGPU-Sim uArch: core:  8, cta: 2 initialized @(3,0)
GPGPU-Sim uArch: core:  9, cta: 2 initialized @(3,0)
GPGPU-Sim uArch: core: 10, cta: 2 initialized @(3,0)
GPGPU-Sim uArch: core: 11, cta: 2 initialized @(3,0)
GPGPU-Sim uArch: core: 12, cta: 2 initialized @(3,0)
GPGPU-Sim uArch: core: 13, cta: 2 initialized @(3,0)
GPGPU-Sim uArch: core:  0, cta: 2 initialized @(3,0)
GPGPU-Sim uArch: core:  1, cta: 3 initialized @(4,0)
GPGPU-Sim uArch: core:  2, cta: 3 initialized @(4,0)
GPGPU-Sim uArch: core:  3, cta: 3 initialized @(4,0)
GPGPU-Sim uArch: core:  4, cta: 3 initialized @(4,0)
GPGPU-Sim uArch: core:  5, cta: 3 initialized @(4,0)
GPGPU-Sim uArch: core:  6, cta: 3 initialized @(4,0)
GPGPU-Sim uArch: core:  7, cta: 3 initialized @(4,0)
GPGPU-Sim uArch: core:  8, cta: 3 initialized @(4,0)
GPGPU-Sim uArch: core:  9, cta: 3 initialized @(4,0)
GPGPU-Sim uArch: core: 10, cta: 3 initialized @(4,0)
GPGPU-Sim uArch: core: 11, cta: 3 initialized @(4,0)
GPGPU-Sim uArch: core: 12, cta: 3 initialized @(4,0)
GPGPU-Sim uArch: core: 13, cta: 3 initialized @(4,0)
GPGPU-Sim uArch: core:  0, cta: 3 initialized @(4,0)
GPGPU-Sim uArch: core:  1, cta: 4 initialized @(5,0)
GPGPU-Sim uArch: core:  2, cta: 4 initialized @(5,0)
GPGPU-Sim uArch: core:  3, cta: 4 initialized @(5,0)
GPGPU-Sim uArch: core:  4, cta: 4 initialized @(5,0)
GPGPU-Sim uArch: core:  5, cta: 4 initialized @(5,0)
GPGPU-Sim uArch: core:  6, cta: 4 initialized @(5,0)
GPGPU-Sim uArch: core:  7, cta: 4 initialized @(5,0)
GPGPU-Sim uArch: core:  8, cta: 4 initialized @(5,0)
GPGPU-Sim uArch: core:  9, cta: 4 initialized @(5,0)
GPGPU-Sim uArch: core: 10, cta: 4 initialized @(5,0)
GPGPU-Sim uArch: core: 11, cta: 4 initialized @(5,0)
GPGPU-Sim uArch: core: 12, cta: 4 initialized @(5,0)
GPGPU-Sim uArch: core: 13, cta: 4 initialized @(5,0)
GPGPU-Sim uArch: core:  0, cta: 4 initialized @(5,0)
GPGPU-Sim uArch: core:  1, cta: 5 initialized @(6,0)
GPGPU-Sim uArch: core:  2, cta: 5 initialized @(6,0)
GPGPU-Sim uArch: core:  3, cta: 5 initialized @(6,0)
GPGPU-Sim uArch: core:  4, cta: 5 initialized @(6,0)
GPGPU-Sim uArch: core:  5, cta: 5 initialized @(6,0)
GPGPU-Sim uArch: core:  6, cta: 5 initialized @(6,0)
GPGPU-Sim uArch: core:  7, cta: 5 initialized @(6,0)
GPGPU-Sim uArch: core:  8, cta: 5 initialized @(6,0)
GPGPU-Sim uArch: core:  9, cta: 5 initialized @(6,0)
GPGPU-Sim uArch: core: 10, cta: 5 initialized @(6,0)
GPGPU-Sim uArch: core: 11, cta: 5 initialized @(6,0)
GPGPU-Sim uArch: core: 12, cta: 5 initialized @(6,0)
GPGPU-Sim uArch: core: 13, cta: 5 initialized @(6,0)
GPGPU-Sim uArch: core:  0, cta: 5 initialized @(6,0)
GPGPU-Sim PTX: WARNING (_1.ptx:143) ** reading undefined register '$r124' (cuid:0). Setting to 0X00000000. This is okay if you are simulating the native ISA
GPGPU-Sim uArch: Shader 10 finished CTA #1 (10776,0), 5 CTAs running
GPGPU-Sim uArch: core: 10, cta: 1 initialized @(10777,0)
GPGPU-Sim uArch: Shader 12 finished CTA #4 (10818,0), 5 CTAs running
GPGPU-Sim uArch: core: 12, cta: 4 initialized @(10819,0)
GPGPU-Sim uArch: Shader 3 finished CTA #0 (10851,0), 5 CTAs running
GPGPU-Sim uArch: core:  3, cta: 0 initialized @(10852,0)
GPGPU-Sim uArch: Shader 7 finished CTA #1 (10864,0), 5 CTAs running
GPGPU-Sim uArch: core:  7, cta: 1 initialized @(10865,0)
GPGPU-Sim uArch: Shader 10 finished CTA #2 (10902,0), 5 CTAs running
GPGPU-Sim uArch: core: 10, cta: 2 initialized @(10903,0)
GPGPU-Sim uArch: Shader 12 finished CTA #5 (10909,0), 5 CTAs running
GPGPU-Sim uArch: core: 12, cta: 5 initialized @(10910,0)
GPGPU-Sim uArch: Shader 3 finished CTA #1 (10913,0), 5 CTAs running
GPGPU-Sim uArch: core:  3, cta: 1 initialized @(10914,0)
GPGPU-Sim uArch: Shader 13 finished CTA #1 (10914,0), 5 CTAs running
GPGPU-Sim uArch: core: 13, cta: 1 initialized @(10915,0)
GPGPU-Sim uArch: Shader 9 finished CTA #5 (10925,0), 5 CTAs running
GPGPU-Sim uArch: core:  9, cta: 5 initialized @(10926,0)
GPGPU-Sim uArch: Shader 12 finished CTA #0 (10926,0), 5 CTAs running
GPGPU-Sim uArch: core: 12, cta: 0 initialized @(10927,0)
GPGPU-Sim uArch: Shader 10 finished CTA #3 (10948,0), 5 CTAs running
GPGPU-Sim uArch: core: 10, cta: 3 initialized @(10949,0)
GPGPU-Sim uArch: Shader 11 finished CTA #5 (10952,0), 5 CTAs running
GPGPU-Sim uArch: core: 11, cta: 5 initialized @(10953,0)
GPGPU-Sim uArch: Shader 12 finished CTA #1 (10954,0), 5 CTAs running
GPGPU-Sim uArch: core: 12, cta: 1 initialized @(10955,0)
GPGPU-Sim uArch: Shader 13 finished CTA #2 (10956,0), 5 CTAs running
GPGPU-Sim uArch: core: 13, cta: 2 initialized @(10957,0)
GPGPU-Sim uArch: Shader 3 finished CTA #2 (10969,0), 5 CTAs running
GPGPU-Sim uArch: core:  3, cta: 2 initialized @(10970,0)
GPGPU-Sim uArch: Shader 12 finished CTA #2 (11001,0), 5 CTAs running
GPGPU-Sim uArch: core: 12, cta: 2 initialized @(11002,0)
GPGPU-Sim uArch: Shader 1 finished CTA #0 (11026,0), 5 CTAs running
GPGPU-Sim uArch: core:  1, cta: 0 initialized @(11027,0)
GPGPU-Sim uArch: Shader 13 finished CTA #4 (11032,0), 5 CTAs running
GPGPU-Sim uArch: core: 13, cta: 4 initialized @(11033,0)
GPGPU-Sim uArch: Shader 1 finished CTA #1 (11044,0), 5 CTAs running
GPGPU-Sim uArch: core:  1, cta: 1 initialized @(11045,0)
GPGPU-Sim uArch: Shader 3 finished CTA #3 (11056,0), 5 CTAs running
GPGPU-Sim uArch: core:  3, cta: 3 initialized @(11057,0)
GPGPU-Sim uArch: Shader 0 finished CTA #0 (11070,0), 5 CTAs running
GPGPU-Sim uArch: Shader 10 finished CTA #4 (11070,0), 5 CTAs running
GPGPU-Sim uArch: Shader 10 finished CTA #5 (11070,0), 4 CTAs running
GPGPU-Sim uArch: core: 10, cta: 4 initialized @(11071,0)
GPGPU-Sim uArch: core:  0, cta: 0 initialized @(11071,0)
GPGPU-Sim uArch: core: 10, cta: 5 initialized @(11072,0)
GPGPU-Sim uArch: Shader 1 finished CTA #2 (11072,0), 5 CTAs running
GPGPU-Sim uArch: core:  1, cta: 2 initialized @(11073,0)
GPGPU-Sim uArch: Shader 13 finished CTA #3 (11077,0), 5 CTAs running
GPGPU-Sim uArch: core: 13, cta: 3 initialized @(11078,0)
GPGPU-Sim uArch: Shader 13 finished CTA #0 (11081,0), 5 CTAs running
GPGPU-Sim uArch: core: 13, cta: 0 initialized @(11082,0)
GPGPU-Sim uArch: Shader 12 finished CTA #3 (11097,0), 5 CTAs running
GPGPU-Sim uArch: Shader 13 finished CTA #5 (11097,0), 5 CTAs running
GPGPU-Sim uArch: core: 12, cta: 3 initialized @(11098,0)
GPGPU-Sim uArch: core: 13, cta: 5 initialized @(11098,0)
GPGPU-Sim uArch: Shader 3 finished CTA #4 (11100,0), 5 CTAs running
GPGPU-Sim uArch: core:  3, cta: 4 initialized @(11101,0)
GPGPU-Sim uArch: Shader 0 finished CTA #3 (11112,0), 5 CTAs running
GPGPU-Sim uArch: core:  0, cta: 3 initialized @(11113,0)
GPGPU-Sim uArch: Shader 2 finished CTA #2 (11113,0), 5 CTAs running
GPGPU-Sim uArch: core:  2, cta: 2 initialized @(11114,0)
GPGPU-Sim uArch: Shader 11 finished CTA #0 (11116,0), 5 CTAs running
GPGPU-Sim uArch: core: 11, cta: 0 initialized @(11117,0)
GPGPU-Sim uArch: Shader 3 finished CTA #5 (11117,0), 5 CTAs running
GPGPU-Sim uArch: core:  3, cta: 5 initialized @(11118,0)
GPGPU-Sim uArch: Shader 7 finished CTA #2 (11121,0), 5 CTAs running
GPGPU-Sim uArch: core:  7, cta: 2 initialized @(11122,0)
GPGPU-Sim uArch: Shader 4 finished CTA #2 (11124,0), 5 CTAs running
GPGPU-Sim uArch: Shader 10 finished CTA #0 (11124,0), 5 CTAs running
GPGPU-Sim uArch: core: 10, cta: 0 initialized @(11125,0)
GPGPU-Sim uArch: core:  4, cta: 2 initialized @(11125,0)
GPGPU-Sim uArch: Shader 0 finished CTA #1 (11125,0), 5 CTAs running
GPGPU-Sim uArch: core:  0, cta: 1 initialized @(11126,0)
GPGPU-Sim uArch: Shader 0 finished CTA #4 (11128,0), 5 CTAs running
GPGPU-Sim uArch: core:  0, cta: 4 initialized @(11129,0)
GPGPU-Sim uArch: Shader 9 finished CTA #1 (11129,0), 5 CTAs running
GPGPU-Sim uArch: core:  9, cta: 1 initialized @(11130,0)
GPGPU-Sim uArch: Shader 9 finished CTA #0 (11142,0), 5 CTAs running
GPGPU-Sim uArch: core:  9, cta: 0 initialized @(11143,0)
GPGPU-Sim uArch: Shader 0 finished CTA #5 (11156,0), 5 CTAs running
GPGPU-Sim uArch: core:  0, cta: 5 initialized @(11157,0)
GPGPU-Sim uArch: Shader 11 finished CTA #1 (11167,0), 5 CTAs running
GPGPU-Sim uArch: core: 11, cta: 1 initialized @(11168,0)
GPGPU-Sim uArch: Shader 7 finished CTA #3 (11171,0), 5 CTAs running
GPGPU-Sim uArch: core:  7, cta: 3 initialized @(11172,0)
GPGPU-Sim uArch: Shader 0 finished CTA #2 (11172,0), 5 CTAs running
GPGPU-Sim uArch: core:  0, cta: 2 initialized @(11173,0)
GPGPU-Sim uArch: Shader 1 finished CTA #3 (11176,0), 5 CTAs running
GPGPU-Sim uArch: Shader 5 finished CTA #4 (11176,0), 5 CTAs running
GPGPU-Sim uArch: Shader 11 finished CTA #2 (11176,0), 5 CTAs running
GPGPU-Sim uArch: core:  1, cta: 3 initialized @(11177,0)
GPGPU-Sim uArch: core:  5, cta: 4 initialized @(11177,0)
GPGPU-Sim uArch: core: 11, cta: 2 initialized @(11177,0)
GPGPU-Sim uArch: Shader 7 finished CTA #4 (11180,0), 5 CTAs running
GPGPU-Sim uArch: core:  7, cta: 4 initialized @(11181,0)
GPGPU-Sim uArch: Shader 9 finished CTA #2 (11181,0), 5 CTAs running
GPGPU-Sim uArch: Shader 9 finished CTA #3 (11181,0), 4 CTAs running
GPGPU-Sim uArch: core:  9, cta: 2 initialized @(11182,0)
GPGPU-Sim uArch: core:  9, cta: 3 initialized @(11183,0)
GPGPU-Sim uArch: Shader 7 finished CTA #5 (11201,0), 5 CTAs running
GPGPU-Sim uArch: core:  7, cta: 5 initialized @(11202,0)
GPGPU-Sim uArch: Shader 5 finished CTA #5 (11206,0), 5 CTAs running
GPGPU-Sim uArch: core:  5, cta: 5 initialized @(11207,0)
GPGPU-Sim uArch: Shader 4 finished CTA #5 (11226,0), 5 CTAs running
GPGPU-Sim uArch: core:  4, cta: 5 initialized @(11227,0)
GPGPU-Sim uArch: Shader 1 finished CTA #5 (11235,0), 5 CTAs running
GPGPU-Sim uArch: core:  1, cta: 5 initialized @(11236,0)
GPGPU-Sim uArch: Shader 4 finished CTA #4 (11239,0), 5 CTAs running
GPGPU-Sim uArch: core:  4, cta: 4 initialized @(11240,0)
GPGPU-Sim uArch: Shader 8 finished CTA #5 (11245,0), 5 CTAs running
GPGPU-Sim uArch: Shader 9 finished CTA #4 (11245,0), 5 CTAs running
GPGPU-Sim uArch: core:  8, cta: 5 initialized @(11246,0)
GPGPU-Sim uArch: core:  9, cta: 4 initialized @(11246,0)
GPGPU-Sim uArch: Shader 1 finished CTA #4 (11246,0), 5 CTAs running
GPGPU-Sim uArch: core:  1, cta: 4 initialized @(11247,0)
GPGPU-Sim uArch: Shader 4 finished CTA #0 (11247,0), 5 CTAs running
GPGPU-Sim uArch: core:  4, cta: 0 initialized @(11248,0)
GPGPU-Sim uArch: Shader 11 finished CTA #3 (11262,0), 5 CTAs running
GPGPU-Sim uArch: Shader 11 finished CTA #4 (11262,0), 4 CTAs running
GPGPU-Sim uArch: core: 11, cta: 3 initialized @(11263,0)
GPGPU-Sim uArch: core: 11, cta: 4 initialized @(11264,0)
GPGPU-Sim uArch: Shader 8 finished CTA #3 (11267,0), 5 CTAs running
GPGPU-Sim uArch: core:  8, cta: 3 initialized @(11268,0)
GPGPU-Sim uArch: Shader 4 finished CTA #3 (11275,0), 5 CTAs running
GPGPU-Sim uArch: core:  4, cta: 3 initialized @(11276,0)
GPGPU-Sim uArch: Shader 7 finished CTA #0 (11282,0), 5 CTAs running
GPGPU-Sim uArch: core:  7, cta: 0 initialized @(11283,0)
GPGPU-Sim uArch: Shader 5 finished CTA #1 (11285,0), 5 CTAs running
GPGPU-Sim uArch: core:  5, cta: 1 initialized @(11286,0)
GPGPU-Sim uArch: Shader 6 finished CTA #3 (11292,0), 5 CTAs running
GPGPU-Sim uArch: core:  6, cta: 3 initialized @(11293,0)
GPGPU-Sim uArch: Shader 5 finished CTA #2 (11294,0), 5 CTAs running
GPGPU-Sim uArch: Shader 5 finished CTA #3 (11294,0), 4 CTAs running
GPGPU-Sim uArch: core:  5, cta: 2 initialized @(11295,0)
GPGPU-Sim uArch: core:  5, cta: 3 initialized @(11296,0)
GPGPU-Sim uArch: Shader 5 finished CTA #0 (11297,0), 5 CTAs running
GPGPU-Sim uArch: core:  5, cta: 0 initialized @(11298,0)
GPGPU-Sim uArch: Shader 4 finished CTA #1 (11299,0), 5 CTAs running
GPGPU-Sim uArch: core:  4, cta: 1 initialized @(11300,0)
GPGPU-Sim uArch: Shader 6 finished CTA #4 (11312,0), 5 CTAs running
GPGPU-Sim uArch: core:  6, cta: 4 initialized @(11313,0)
GPGPU-Sim uArch: Shader 8 finished CTA #0 (11323,0), 5 CTAs running
GPGPU-Sim uArch: core:  8, cta: 0 initialized @(11324,0)
GPGPU-Sim uArch: Shader 6 finished CTA #5 (11334,0), 5 CTAs running
GPGPU-Sim uArch: core:  6, cta: 5 initialized @(11335,0)
GPGPU-Sim uArch: Shader 2 finished CTA #3 (11347,0), 5 CTAs running
GPGPU-Sim uArch: core:  2, cta: 3 initialized @(11348,0)
GPGPU-Sim uArch: Shader 6 finished CTA #0 (11351,0), 5 CTAs running
GPGPU-Sim uArch: core:  6, cta: 0 initialized @(11352,0)
GPGPU-Sim uArch: Shader 8 finished CTA #1 (11362,0), 5 CTAs running
GPGPU-Sim uArch: core:  8, cta: 1 initialized @(11363,0)
GPGPU-Sim uArch: Shader 2 finished CTA #4 (11363,0), 5 CTAs running
GPGPU-Sim uArch: core:  2, cta: 4 initialized @(11364,0)
GPGPU-Sim uArch: Shader 2 finished CTA #5 (11386,0), 5 CTAs running
GPGPU-Sim uArch: core:  2, cta: 5 initialized @(11387,0)
GPGPU-Sim uArch: Shader 6 finished CTA #1 (11392,0), 5 CTAs running
GPGPU-Sim uArch: core:  6, cta: 1 initialized @(11393,0)
GPGPU-Sim uArch: Shader 8 finished CTA #4 (11399,0), 5 CTAs running
GPGPU-Sim uArch: core:  8, cta: 4 initialized @(11400,0)
GPGPU-Sim uArch: Shader 2 finished CTA #0 (11406,0), 5 CTAs running
GPGPU-Sim uArch: core:  2, cta: 0 initialized @(11407,0)
GPGPU-Sim uArch: Shader 6 finished CTA #2 (11418,0), 5 CTAs running
GPGPU-Sim uArch: core:  6, cta: 2 initialized @(11419,0)
GPGPU-Sim uArch: Shader 2 finished CTA #1 (11430,0), 5 CTAs running
GPGPU-Sim uArch: core:  2, cta: 1 initialized @(11431,0)
GPGPU-Sim uArch: Shader 8 finished CTA #2 (11431,0), 5 CTAs running
GPGPU-Sim uArch: core:  8, cta: 2 initialized @(11432,0)
GPGPU-Sim uArch: Shader 7 finished CTA #1 (19013,0), 5 CTAs running
GPGPU-Sim uArch: core:  7, cta: 1 initialized @(19014,0)
GPGPU-Sim uArch: Shader 2 finished CTA #2 (19469,0), 5 CTAs running
GPGPU-Sim uArch: core:  2, cta: 2 initialized @(19470,0)
GPGPU-Sim uArch: Shader 11 finished CTA #1 (20258,0), 5 CTAs running
GPGPU-Sim uArch: core: 11, cta: 1 initialized @(20259,0)
GPGPU-Sim uArch: Shader 10 finished CTA #2 (20266,0), 5 CTAs running
GPGPU-Sim uArch: core: 10, cta: 2 initialized @(20267,0)
GPGPU-Sim uArch: Shader 12 finished CTA #4 (20308,0), 5 CTAs running
GPGPU-Sim uArch: core: 12, cta: 4 initialized @(20309,0)
GPGPU-Sim uArch: Shader 10 finished CTA #3 (20312,0), 5 CTAs running
GPGPU-Sim uArch: core: 10, cta: 3 initialized @(20313,0)
GPGPU-Sim uArch: Shader 12 finished CTA #5 (20319,0), 5 CTAs running
GPGPU-Sim uArch: core: 12, cta: 5 initialized @(20320,0)
GPGPU-Sim uArch: Shader 10 finished CTA #4 (20335,0), 5 CTAs running
GPGPU-Sim uArch: core: 10, cta: 4 initialized @(20336,0)
GPGPU-Sim uArch: Shader 12 finished CTA #0 (20339,0), 5 CTAs running
GPGPU-Sim uArch: core: 12, cta: 0 initialized @(20340,0)
GPGPU-Sim uArch: Shader 10 finished CTA #5 (20361,0), 5 CTAs running
GPGPU-Sim uArch: core: 10, cta: 5 initialized @(20362,0)
GPGPU-Sim uArch: Shader 11 finished CTA #5 (20396,0), 5 CTAs running
GPGPU-Sim uArch: core: 11, cta: 5 initialized @(20397,0)
GPGPU-Sim uArch: Shader 9 finished CTA #5 (20397,0), 5 CTAs running
GPGPU-Sim uArch: core:  9, cta: 5 initialized @(20398,0)
GPGPU-Sim uArch: Shader 9 finished CTA #0 (20406,0), 5 CTAs running
GPGPU-Sim uArch: core:  9, cta: 0 initialized @(20407,0)
GPGPU-Sim uArch: Shader 9 finished CTA #1 (20425,0), 5 CTAs running
GPGPU-Sim uArch: core:  9, cta: 1 initialized @(20426,0)
GPGPU-Sim uArch: Shader 12 finished CTA #1 (20445,0), 5 CTAs running
GPGPU-Sim uArch: core: 12, cta: 1 initialized @(20446,0)
GPGPU-Sim uArch: Shader 11 finished CTA #0 (20449,0), 5 CTAs running
GPGPU-Sim uArch: core: 11, cta: 0 initialized @(20450,0)
GPGPU-Sim uArch: Shader 11 finished CTA #2 (20476,0), 5 CTAs running
GPGPU-Sim uArch: core: 11, cta: 2 initialized @(20477,0)
GPGPU-Sim uArch: Shader 12 finished CTA #2 (20496,0), 5 CTAs running
GPGPU-Sim uArch: core: 12, cta: 2 initialized @(20497,0)
GPGPU-Sim uArch: Shader 10 finished CTA #0 (20509,0), 5 CTAs running
GPGPU-Sim uArch: Shader 10 finished CTA #1 (20509,0), 4 CTAs running
GPGPU-Sim uArch: Shader 11 finished CTA #4 (20509,0), 5 CTAs running
GPGPU-Sim uArch: Shader 13 finished CTA #2 (20509,0), 5 CTAs running
GPGPU-Sim uArch: core: 13, cta: 2 initialized @(20510,0)
GPGPU-Sim uArch: core: 10, cta: 0 initialized @(20510,0)
GPGPU-Sim uArch: core: 11, cta: 4 initialized @(20510,0)
GPGPU-Sim uArch: core: 10, cta: 1 initialized @(20511,0)
GPGPU-Sim uArch: Shader 13 finished CTA #1 (20518,0), 5 CTAs running
GPGPU-Sim uArch: core: 13, cta: 1 initialized @(20519,0)
GPGPU-Sim uArch: Shader 11 finished CTA #3 (20521,0), 5 CTAs running
GPGPU-Sim uArch: core: 11, cta: 3 initialized @(20522,0)
GPGPU-Sim uArch: Shader 9 finished CTA #2 (20532,0), 5 CTAs running
GPGPU-Sim uArch: Shader 12 finished CTA #3 (20532,0), 5 CTAs running
GPGPU-Sim uArch: core: 12, cta: 3 initialized @(20533,0)
GPGPU-Sim uArch: core:  9, cta: 2 initialized @(20533,0)
GPGPU-Sim uArch: Shader 7 finished CTA #2 (20534,0), 5 CTAs running
GPGPU-Sim uArch: core:  7, cta: 2 initialized @(20535,0)
GPGPU-Sim uArch: Shader 7 finished CTA #3 (20581,0), 5 CTAs running
GPGPU-Sim uArch: core:  7, cta: 3 initialized @(20582,0)
GPGPU-Sim uArch: Shader 7 finished CTA #4 (20592,0), 5 CTAs running
GPGPU-Sim uArch: core:  7, cta: 4 initialized @(20593,0)
GPGPU-Sim uArch: Shader 3 finished CTA #5 (20603,0), 5 CTAs running
GPGPU-Sim uArch: core:  3, cta: 5 initialized @(20604,0)
GPGPU-Sim uArch: Shader 13 finished CTA #4 (20608,0), 5 CTAs running
GPGPU-Sim uArch: core: 13, cta: 4 initialized @(20609,0)
GPGPU-Sim uArch: Shader 9 finished CTA #3 (20629,0), 5 CTAs running
GPGPU-Sim uArch: core:  9, cta: 3 initialized @(20630,0)
GPGPU-Sim uArch: Shader 4 finished CTA #2 (20642,0), 5 CTAs running
GPGPU-Sim uArch: core:  4, cta: 2 initialized @(20643,0)
GPGPU-Sim uArch: Shader 7 finished CTA #5 (20647,0), 5 CTAs running
GPGPU-Sim uArch: core:  7, cta: 5 initialized @(20648,0)
GPGPU-Sim uArch: Shader 13 finished CTA #3 (20657,0), 5 CTAs running
GPGPU-Sim uArch: core: 13, cta: 3 initialized @(20658,0)
GPGPU-Sim uArch: Shader 13 finished CTA #5 (20685,0), 5 CTAs running
GPGPU-Sim uArch: core: 13, cta: 5 initialized @(20686,0)
GPGPU-Sim uArch: Shader 7 finished CTA #0 (20709,0), 5 CTAs running
GPGPU-Sim uArch: Shader 13 finished CTA #0 (20709,0), 5 CTAs running
GPGPU-Sim uArch: core:  7, cta: 0 initialized @(20710,0)
GPGPU-Sim uArch: core: 13, cta: 0 initialized @(20710,0)
GPGPU-Sim uArch: Shader 4 finished CTA #3 (20714,0), 5 CTAs running
GPGPU-Sim uArch: Shader 9 finished CTA #4 (20714,0), 5 CTAs running
GPGPU-Sim uArch: core:  4, cta: 3 initialized @(20715,0)
GPGPU-Sim uArch: core:  9, cta: 4 initialized @(20715,0)
GPGPU-Sim uArch: Shader 3 finished CTA #0 (20728,0), 5 CTAs running
GPGPU-Sim uArch: core:  3, cta: 0 initialized @(20729,0)
GPGPU-Sim uArch: Shader 3 finished CTA #2 (20769,0), 5 CTAs running
GPGPU-Sim uArch: core:  3, cta: 2 initialized @(20770,0)
GPGPU-Sim uArch: Shader 4 finished CTA #4 (20772,0), 5 CTAs running
GPGPU-Sim uArch: Shader 4 finished CTA #0 (20772,0), 4 CTAs running
GPGPU-Sim uArch: core:  4, cta: 0 initialized @(20773,0)
GPGPU-Sim uArch: core:  4, cta: 4 initialized @(20774,0)
GPGPU-Sim uArch: Shader 3 finished CTA #1 (20806,0), 5 CTAs running
GPGPU-Sim uArch: core:  3, cta: 1 initialized @(20807,0)
GPGPU-Sim uArch: Shader 4 finished CTA #5 (20818,0), 5 CTAs running
GPGPU-Sim uArch: core:  4, cta: 5 initialized @(20819,0)
GPGPU-Sim uArch: Shader 3 finished CTA #3 (20853,0), 5 CTAs running
GPGPU-Sim uArch: core:  3, cta: 3 initialized @(20854,0)
GPGPU-Sim uArch: Shader 0 finished CTA #2 (20872,0), 5 CTAs running
GPGPU-Sim uArch: core:  0, cta: 2 initialized @(20873,0)
GPGPU-Sim uArch: Shader 0 finished CTA #0 (20882,0), 5 CTAs running
GPGPU-Sim uArch: core:  0, cta: 0 initialized @(20883,0)
GPGPU-Sim uArch: Shader 4 finished CTA #1 (20884,0), 5 CTAs running
GPGPU-Sim uArch: core:  4, cta: 1 initialized @(20885,0)
GPGPU-Sim uArch: Shader 3 finished CTA #4 (20902,0), 5 CTAs running
GPGPU-Sim uArch: core:  3, cta: 4 initialized @(20903,0)
GPGPU-Sim uArch: Shader 5 finished CTA #4 (20915,0), 5 CTAs running
GPGPU-Sim uArch: core:  5, cta: 4 initialized @(20916,0)
GPGPU-Sim uArch: Shader 0 finished CTA #3 (20927,0), 5 CTAs running
GPGPU-Sim uArch: core:  0, cta: 3 initialized @(20928,0)
GPGPU-Sim uArch: Shader 0 finished CTA #1 (20933,0), 5 CTAs running
GPGPU-Sim uArch: core:  0, cta: 1 initialized @(20934,0)
GPGPU-Sim uArch: Shader 0 finished CTA #5 (20949,0), 5 CTAs running
GPGPU-Sim uArch: core:  0, cta: 5 initialized @(20950,0)
GPGPU-Sim uArch: Shader 5 finished CTA #5 (20965,0), 5 CTAs running
GPGPU-Sim uArch: core:  5, cta: 5 initialized @(20966,0)
GPGPU-Sim uArch: Shader 0 finished CTA #4 (20981,0), 5 CTAs running
GPGPU-Sim uArch: core:  0, cta: 4 initialized @(20982,0)
GPGPU-Sim uArch: Shader 1 finished CTA #0 (20994,0), 5 CTAs running
GPGPU-Sim uArch: core:  1, cta: 0 initialized @(20995,0)
GPGPU-Sim uArch: Shader 1 finished CTA #1 (21008,0), 5 CTAs running
GPGPU-Sim uArch: core:  1, cta: 1 initialized @(21009,0)
GPGPU-Sim uArch: Shader 5 finished CTA #0 (21012,0), 5 CTAs running
GPGPU-Sim uArch: core:  5, cta: 0 initialized @(21013,0)
GPGPU-Sim uArch: Shader 1 finished CTA #2 (21019,0), 5 CTAs running
GPGPU-Sim uArch: core:  1, cta: 2 initialized @(21020,0)
GPGPU-Sim uArch: Shader 8 finished CTA #1 (21041,0), 5 CTAs running
GPGPU-Sim uArch: core:  8, cta: 1 initialized @(21042,0)
GPGPU-Sim uArch: Shader 1 finished CTA #3 (21054,0), 5 CTAs running
GPGPU-Sim uArch: Shader 1 finished CTA #4 (21054,0), 4 CTAs running
GPGPU-Sim uArch: core:  1, cta: 3 initialized @(21055,0)
GPGPU-Sim uArch: core:  1, cta: 4 initialized @(21056,0)
GPGPU-Sim uArch: Shader 1 finished CTA #5 (21077,0), 5 CTAs running
GPGPU-Sim uArch: core:  1, cta: 5 initialized @(21078,0)
GPGPU-Sim uArch: Shader 8 finished CTA #2 (21090,0), 5 CTAs running
GPGPU-Sim uArch: core:  8, cta: 2 initialized @(21091,0)
GPGPU-Sim uArch: Shader 6 finished CTA #5 (21102,0), 5 CTAs running
GPGPU-Sim uArch: core:  6, cta: 5 initialized @(21103,0)
GPGPU-Sim uArch: Shader 8 finished CTA #3 (21114,0), 5 CTAs running
GPGPU-Sim uArch: core:  8, cta: 3 initialized @(21115,0)
GPGPU-Sim uArch: Shader 6 finished CTA #0 (21116,0), 5 CTAs running
GPGPU-Sim uArch: core:  6, cta: 0 initialized @(21117,0)
GPGPU-Sim uArch: Shader 2 finished CTA #3 (21177,0), 5 CTAs running
GPGPU-Sim uArch: core:  2, cta: 3 initialized @(21178,0)
GPGPU-Sim uArch: Shader 5 finished CTA #1 (21178,0), 5 CTAs running
GPGPU-Sim uArch: core:  5, cta: 1 initialized @(21179,0)
GPGPU-Sim uArch: Shader 5 finished CTA #2 (21188,0), 5 CTAs running
GPGPU-Sim uArch: core:  5, cta: 2 initialized @(21189,0)
GPGPU-Sim uArch: Shader 5 finished CTA #3 (21202,0), 5 CTAs running
GPGPU-Sim uArch: core:  5, cta: 3 initialized @(21203,0)
GPGPU-Sim uArch: Shader 6 finished CTA #2 (21216,0), 5 CTAs running
GPGPU-Sim uArch: core:  6, cta: 2 initialized @(21217,0)
GPGPU-Sim uArch: Shader 8 finished CTA #5 (21230,0), 5 CTAs running
GPGPU-Sim uArch: core:  8, cta: 5 initialized @(21231,0)
GPGPU-Sim uArch: Shader 6 finished CTA #3 (21232,0), 5 CTAs running
GPGPU-Sim uArch: core:  6, cta: 3 initialized @(21233,0)
GPGPU-Sim uArch: Shader 6 finished CTA #1 (21237,0), 5 CTAs running
GPGPU-Sim uArch: core:  6, cta: 1 initialized @(21238,0)
GPGPU-Sim uArch: Shader 2 finished CTA #0 (21250,0), 5 CTAs running
GPGPU-Sim uArch: core:  2, cta: 0 initialized @(21251,0)
GPGPU-Sim uArch: Shader 8 finished CTA #4 (21257,0), 5 CTAs running
GPGPU-Sim uArch: core:  8, cta: 4 initialized @(21258,0)
GPGPU-Sim uArch: Shader 2 finished CTA #4 (21263,0), 5 CTAs running
GPGPU-Sim uArch: Shader 2 finished CTA #1 (21263,0), 4 CTAs running
GPGPU-Sim uArch: core:  2, cta: 1 initialized @(21264,0)
GPGPU-Sim uArch: core:  2, cta: 4 initialized @(21265,0)
GPGPU-Sim uArch: Shader 2 finished CTA #5 (21275,0), 5 CTAs running
GPGPU-Sim uArch: core:  2, cta: 5 initialized @(21276,0)
GPGPU-Sim uArch: Shader 8 finished CTA #0 (21330,0), 5 CTAs running
GPGPU-Sim uArch: core:  8, cta: 0 initialized @(21331,0)
GPGPU-Sim uArch: Shader 6 finished CTA #4 (21335,0), 5 CTAs running
GPGPU-Sim uArch: core:  6, cta: 4 initialized @(21336,0)
GPGPU-Sim uArch: Shader 2 finished CTA #2 (27218,0), 5 CTAs running
GPGPU-Sim uArch: core:  2, cta: 2 initialized @(27219,0)
GPGPU-Sim uArch: Shader 7 finished CTA #1 (27986,0), 5 CTAs running
GPGPU-Sim uArch: core:  7, cta: 1 initialized @(27987,0)
GPGPU-Sim uArch: Shader 2 finished CTA #3 (29197,0), 5 CTAs running
GPGPU-Sim uArch: core:  2, cta: 3 initialized @(29198,0)
GPGPU-Sim uArch: Shader 11 finished CTA #5 (29891,0), 5 CTAs running
GPGPU-Sim uArch: core: 11, cta: 5 initialized @(29892,0)
GPGPU-Sim uArch: Shader 7 finished CTA #2 (29906,0), 5 CTAs running
GPGPU-Sim uArch: core:  7, cta: 2 initialized @(29907,0)
GPGPU-Sim uArch: Shader 11 finished CTA #0 (29917,0), 5 CTAs running
GPGPU-Sim uArch: core: 11, cta: 0 initialized @(29918,0)
GPGPU-Sim uArch: Shader 7 finished CTA #3 (29922,0), 5 CTAs running
GPGPU-Sim uArch: core:  7, cta: 3 initialized @(29923,0)
GPGPU-Sim uArch: Shader 9 finished CTA #0 (29932,0), 5 CTAs running
GPGPU-Sim uArch: core:  9, cta: 0 initialized @(29933,0)
GPGPU-Sim uArch: Shader 9 finished CTA #1 (29961,0), 5 CTAs running
GPGPU-Sim uArch: core:  9, cta: 1 initialized @(29962,0)
GPGPU-Sim uArch: Shader 11 finished CTA #1 (29970,0), 5 CTAs running
GPGPU-Sim uArch: core: 11, cta: 1 initialized @(29971,0)
GPGPU-Sim uArch: Shader 11 finished CTA #2 (30021,0), 5 CTAs running
GPGPU-Sim uArch: core: 11, cta: 2 initialized @(30022,0)
GPGPU-Sim uArch: Shader 9 finished CTA #2 (30034,0), 5 CTAs running
GPGPU-Sim uArch: core:  9, cta: 2 initialized @(30035,0)
GPGPU-Sim uArch: Shader 7 finished CTA #4 (30071,0), 5 CTAs running
GPGPU-Sim uArch: core:  7, cta: 4 initialized @(30072,0)
GPGPU-Sim uArch: Shader 9 finished CTA #3 (30075,0), 5 CTAs running
GPGPU-Sim uArch: core:  9, cta: 3 initialized @(30076,0)
GPGPU-Sim uArch: Shader 11 finished CTA #3 (30079,0), 5 CTAs running
GPGPU-Sim uArch: core: 11, cta: 3 initialized @(30080,0)
GPGPU-Sim uArch: Shader 7 finished CTA #5 (30092,0), 5 CTAs running
GPGPU-Sim uArch: core:  7, cta: 5 initialized @(30093,0)
GPGPU-Sim uArch: Shader 12 finished CTA #4 (30096,0), 5 CTAs running
GPGPU-Sim uArch: core: 12, cta: 4 initialized @(30097,0)
GPGPU-Sim uArch: Shader 11 finished CTA #4 (30102,0), 5 CTAs running
GPGPU-Sim uArch: core: 11, cta: 4 initialized @(30103,0)
GPGPU-Sim uArch: Shader 9 finished CTA #4 (30139,0), 5 CTAs running
GPGPU-Sim uArch: Shader 9 finished CTA #5 (30139,0), 4 CTAs running
GPGPU-Sim uArch: core:  9, cta: 4 initialized @(30140,0)
GPGPU-Sim uArch: core:  9, cta: 5 initialized @(30141,0)
GPGPU-Sim uArch: Shader 12 finished CTA #5 (30145,0), 5 CTAs running
GPGPU-Sim uArch: core: 12, cta: 5 initialized @(30146,0)
GPGPU-Sim uArch: Shader 10 finished CTA #0 (30158,0), 5 CTAs running
GPGPU-Sim uArch: core: 10, cta: 0 initialized @(30159,0)
GPGPU-Sim uArch: Shader 12 finished CTA #0 (30182,0), 5 CTAs running
GPGPU-Sim uArch: core: 12, cta: 0 initialized @(30183,0)
GPGPU-Sim uArch: Shader 10 finished CTA #1 (30196,0), 5 CTAs running
GPGPU-Sim uArch: core: 10, cta: 1 initialized @(30197,0)
GPGPU-Sim uArch: Shader 12 finished CTA #1 (30215,0), 5 CTAs running
GPGPU-Sim uArch: core: 12, cta: 1 initialized @(30216,0)
GPGPU-Sim uArch: Shader 3 finished CTA #4 (30221,0), 5 CTAs running
GPGPU-Sim uArch: core:  3, cta: 4 initialized @(30222,0)
GPGPU-Sim uArch: Shader 10 finished CTA #2 (30222,0), 5 CTAs running
GPGPU-Sim uArch: core: 10, cta: 2 initialized @(30223,0)
GPGPU-Sim uArch: Shader 12 finished CTA #2 (30226,0), 5 CTAs running
GPGPU-Sim uArch: core: 12, cta: 2 initialized @(30227,0)
GPGPU-Sim uArch: Shader 10 finished CTA #3 (30240,0), 5 CTAs running
GPGPU-Sim uArch: core: 10, cta: 3 initialized @(30241,0)
GPGPU-Sim uArch: Shader 10 finished CTA #4 (30263,0), 5 CTAs running
GPGPU-Sim uArch: Shader 10 finished CTA #5 (30263,0), 4 CTAs running
GPGPU-Sim uArch: core: 10, cta: 4 initialized @(30264,0)
GPGPU-Sim uArch: core: 10, cta: 5 initialized @(30265,0)
GPGPU-Sim uArch: Shader 12 finished CTA #3 (30284,0), 5 CTAs running
GPGPU-Sim uArch: core: 12, cta: 3 initialized @(30285,0)
GPGPU-Sim uArch: Shader 7 finished CTA #0 (30295,0), 5 CTAs running
GPGPU-Sim uArch: core:  7, cta: 0 initialized @(30296,0)
GPGPU-Sim uArch: Shader 4 finished CTA #3 (30296,0), 5 CTAs running
GPGPU-Sim uArch: core:  4, cta: 3 initialized @(30297,0)
GPGPU-Sim uArch: Shader 3 finished CTA #5 (30419,0), 5 CTAs running
GPGPU-Sim uArch: core:  3, cta: 5 initialized @(30420,0)
GPGPU-Sim uArch: Shader 4 finished CTA #2 (30427,0), 5 CTAs running
GPGPU-Sim uArch: core:  4, cta: 2 initialized @(30428,0)
GPGPU-Sim uArch: Shader 1 finished CTA #0 (30440,0), 5 CTAs running
GPGPU-Sim uArch: core:  1, cta: 0 initialized @(30441,0)
GPGPU-Sim uArch: Shader 13 finished CTA #1 (30477,0), 5 CTAs running
GPGPU-Sim uArch: core: 13, cta: 1 initialized @(30478,0)
GPGPU-Sim uArch: Shader 1 finished CTA #3 (30506,0), 5 CTAs running
GPGPU-Sim uArch: core:  1, cta: 3 initialized @(30507,0)
GPGPU-Sim uArch: Shader 3 finished CTA #2 (30521,0), 5 CTAs running
GPGPU-Sim uArch: core:  3, cta: 2 initialized @(30522,0)
GPGPU-Sim uArch: Shader 1 finished CTA #4 (30546,0), 5 CTAs running
GPGPU-Sim uArch: core:  1, cta: 4 initialized @(30547,0)
GPGPU-Sim uArch: Shader 3 finished CTA #0 (30560,0), 5 CTAs running
GPGPU-Sim uArch: Shader 4 finished CTA #4 (30560,0), 5 CTAs running
GPGPU-Sim uArch: core:  3, cta: 0 initialized @(30561,0)
GPGPU-Sim uArch: core:  4, cta: 4 initialized @(30561,0)
GPGPU-Sim uArch: Shader 3 finished CTA #3 (30578,0), 5 CTAs running
GPGPU-Sim uArch: core:  3, cta: 3 initialized @(30579,0)
GPGPU-Sim uArch: Shader 4 finished CTA #0 (30583,0), 5 CTAs running
GPGPU-Sim uArch: core:  4, cta: 0 initialized @(30584,0)
GPGPU-Sim uArch: Shader 4 finished CTA #1 (30612,0), 5 CTAs running
GPGPU-Sim uArch: core:  4, cta: 1 initialized @(30613,0)
GPGPU-Sim uArch: Shader 4 finished CTA #5 (30622,0), 5 CTAs running
GPGPU-Sim uArch: core:  4, cta: 5 initialized @(30623,0)
GPGPU-Sim uArch: Shader 3 finished CTA #1 (30627,0), 5 CTAs running
GPGPU-Sim uArch: core:  3, cta: 1 initialized @(30628,0)
GPGPU-Sim uArch: Shader 1 finished CTA #5 (30629,0), 5 CTAs running
GPGPU-Sim uArch: core:  1, cta: 5 initialized @(30630,0)
GPGPU-Sim uArch: Shader 1 finished CTA #1 (30659,0), 5 CTAs running
GPGPU-Sim uArch: core:  1, cta: 1 initialized @(30660,0)
GPGPU-Sim uArch: Shader 1 finished CTA #2 (30720,0), 5 CTAs running
GPGPU-Sim uArch: core:  1, cta: 2 initialized @(30721,0)
GPGPU-Sim uArch: Shader 2 finished CTA #4 (30747,0), 5 CTAs running
GPGPU-Sim uArch: core:  2, cta: 4 initialized @(30748,0)
GPGPU-Sim uArch: Shader 6 finished CTA #3 (30748,0), 5 CTAs running
GPGPU-Sim uArch: core:  6, cta: 3 initialized @(30749,0)
GPGPU-Sim uArch: Shader 2 finished CTA #5 (30756,0), 5 CTAs running
GPGPU-Sim uArch: core:  2, cta: 5 initialized @(30757,0)
GPGPU-Sim uArch: Shader 13 finished CTA #2 (30770,0), 5 CTAs running
GPGPU-Sim uArch: core: 13, cta: 2 initialized @(30771,0)
GPGPU-Sim uArch: Shader 0 finished CTA #2 (30777,0), 5 CTAs running
GPGPU-Sim uArch: core:  0, cta: 2 initialized @(30778,0)
GPGPU-Sim uArch: Shader 5 finished CTA #2 (30779,0), 5 CTAs running
GPGPU-Sim uArch: core:  5, cta: 2 initialized @(30780,0)
GPGPU-Sim uArch: Shader 5 finished CTA #4 (30816,0), 5 CTAs running
GPGPU-Sim uArch: Shader 13 finished CTA #0 (30816,0), 5 CTAs running
GPGPU-Sim uArch: core: 13, cta: 0 initialized @(30817,0)
GPGPU-Sim uArch: core:  5, cta: 4 initialized @(30817,0)
GPGPU-Sim uArch: Shader 2 finished CTA #0 (30825,0), 5 CTAs running
GPGPU-Sim uArch: core:  2, cta: 0 initialized @(30826,0)
GPGPU-Sim uArch: Shader 5 finished CTA #3 (30853,0), 5 CTAs running
GPGPU-Sim uArch: core:  5, cta: 3 initialized @(30854,0)
GPGPU-Sim uArch: Shader 6 finished CTA #0 (30863,0), 5 CTAs running
GPGPU-Sim uArch: core:  6, cta: 0 initialized @(30864,0)
GPGPU-Sim uArch: Shader 13 finished CTA #4 (30866,0), 5 CTAs running
GPGPU-Sim uArch: core: 13, cta: 4 initialized @(30867,0)
GPGPU-Sim uArch: Shader 2 finished CTA #1 (30871,0), 5 CTAs running
GPGPU-Sim uArch: core:  2, cta: 1 initialized @(30872,0)
GPGPU-Sim uArch: Shader 6 finished CTA #1 (30888,0), 5 CTAs running
GPGPU-Sim uArch: core:  6, cta: 1 initialized @(30889,0)
GPGPU-Sim uArch: Shader 6 finished CTA #2 (30922,0), 5 CTAs running
GPGPU-Sim uArch: Shader 6 finished CTA #5 (30922,0), 4 CTAs running
GPGPU-Sim uArch: core:  6, cta: 2 initialized @(30923,0)
GPGPU-Sim uArch: core:  6, cta: 5 initialized @(30924,0)
GPGPU-Sim uArch: Shader 5 finished CTA #0 (30934,0), 5 CTAs running
GPGPU-Sim uArch: core:  5, cta: 0 initialized @(30935,0)
GPGPU-Sim uArch: Shader 13 finished CTA #3 (30937,0), 5 CTAs running
GPGPU-Sim uArch: core: 13, cta: 3 initialized @(30938,0)
GPGPU-Sim uArch: Shader 5 finished CTA #5 (30954,0), 5 CTAs running
GPGPU-Sim uArch: core:  5, cta: 5 initialized @(30955,0)
GPGPU-Sim uArch: Shader 5 finished CTA #1 (30964,0), 5 CTAs running
GPGPU-Sim uArch: Shader 13 finished CTA #5 (30964,0), 5 CTAs running
GPGPU-Sim uArch: core: 13, cta: 5 initialized @(30965,0)
GPGPU-Sim uArch: core:  5, cta: 1 initialized @(30965,0)
GPGPU-Sim uArch: Shader 6 finished CTA #4 (30978,0), 5 CTAs running
GPGPU-Sim uArch: core:  6, cta: 4 initialized @(30979,0)
GPGPU-Sim uArch: Shader 8 finished CTA #1 (30989,0), 5 CTAs running
GPGPU-Sim uArch: core:  8, cta: 1 initialized @(30990,0)
GPGPU-Sim uArch: Shader 0 finished CTA #3 (30990,0), 5 CTAs running
GPGPU-Sim uArch: core:  0, cta: 3 initialized @(30991,0)
GPGPU-Sim uArch: Shader 0 finished CTA #4 (31026,0), 5 CTAs running
GPGPU-Sim uArch: core:  0, cta: 4 initialized @(31027,0)
GPGPU-Sim uArch: Shader 0 finished CTA #0 (31055,0), 5 CTAs running
GPGPU-Sim uArch: core:  0, cta: 0 initialized @(31056,0)
GPGPU-Sim uArch: Shader 0 finished CTA #5 (31084,0), 5 CTAs running
GPGPU-Sim uArch: core:  0, cta: 5 initialized @(31085,0)
GPGPU-Sim uArch: Shader 0 finished CTA #1 (31107,0), 5 CTAs running
GPGPU-Sim uArch: core:  0, cta: 1 initialized @(31108,0)
GPGPU-Sim uArch: Shader 8 finished CTA #2 (31243,0), 5 CTAs running
GPGPU-Sim uArch: core:  8, cta: 2 initialized @(31244,0)
GPGPU-Sim uArch: Shader 8 finished CTA #3 (31252,0), 5 CTAs running
GPGPU-Sim uArch: core:  8, cta: 3 initialized @(31253,0)
GPGPU-Sim uArch: Shader 8 finished CTA #0 (31305,0), 5 CTAs running
GPGPU-Sim uArch: core:  8, cta: 0 initialized @(31306,0)
GPGPU-Sim uArch: Shader 8 finished CTA #5 (31336,0), 5 CTAs running
GPGPU-Sim uArch: core:  8, cta: 5 initialized @(31337,0)
GPGPU-Sim uArch: Shader 8 finished CTA #4 (31376,0), 5 CTAs running
GPGPU-Sim uArch: core:  8, cta: 4 initialized @(31377,0)
GPGPU-Sim uArch: Shader 7 finished CTA #1 (35871,0), 5 CTAs running
GPGPU-Sim uArch: core:  7, cta: 1 initialized @(35872,0)
GPGPU-Sim uArch: Shader 2 finished CTA #2 (36153,0), 5 CTAs running
GPGPU-Sim uArch: core:  2, cta: 2 initialized @(36154,0)
GPGPU-Sim uArch: Shader 2 finished CTA #3 (38383,0), 5 CTAs running
GPGPU-Sim uArch: core:  2, cta: 3 initialized @(38384,0)
GPGPU-Sim uArch: Shader 7 finished CTA #2 (39118,0), 5 CTAs running
GPGPU-Sim uArch: core:  7, cta: 2 initialized @(39119,0)
GPGPU-Sim uArch: Shader 7 finished CTA #3 (39127,0), 5 CTAs running
GPGPU-Sim uArch: core:  7, cta: 3 initialized @(39128,0)
GPGPU-Sim uArch: Shader 11 finished CTA #5 (39270,0), 5 CTAs running
GPGPU-Sim uArch: core: 11, cta: 5 initialized @(39271,0)
GPGPU-Sim uArch: Shader 7 finished CTA #4 (39271,0), 5 CTAs running
GPGPU-Sim uArch: Shader 7 finished CTA #5 (39271,0), 4 CTAs running
GPGPU-Sim uArch: core:  7, cta: 4 initialized @(39272,0)
GPGPU-Sim uArch: core:  7, cta: 5 initialized @(39273,0)
GPGPU-Sim uArch: Shader 7 finished CTA #0 (39291,0), 5 CTAs running
GPGPU-Sim uArch: core:  7, cta: 0 initialized @(39292,0)
GPGPU-Sim uArch: Shader 11 finished CTA #0 (39309,0), 5 CTAs running
GPGPU-Sim uArch: core: 11, cta: 0 initialized @(39310,0)
GPGPU-Sim uArch: Shader 9 finished CTA #0 (39341,0), 5 CTAs running
GPGPU-Sim uArch: core:  9, cta: 0 initialized @(39342,0)
GPGPU-Sim uArch: Shader 11 finished CTA #1 (39471,0), 5 CTAs running
GPGPU-Sim uArch: core: 11, cta: 1 initialized @(39472,0)
GPGPU-Sim uArch: Shader 9 finished CTA #1 (39481,0), 5 CTAs running
GPGPU-Sim uArch: core:  9, cta: 1 initialized @(39482,0)
GPGPU-Sim uArch: Shader 11 finished CTA #2 (39503,0), 5 CTAs running
GPGPU-Sim uArch: core: 11, cta: 2 initialized @(39504,0)
GPGPU-Sim uArch: Shader 9 finished CTA #2 (39527,0), 5 CTAs running
GPGPU-Sim uArch: core:  9, cta: 2 initialized @(39528,0)
GPGPU-Sim uArch: Shader 11 finished CTA #3 (39551,0), 5 CTAs running
GPGPU-Sim uArch: core: 11, cta: 3 initialized @(39552,0)
GPGPU-Sim uArch: Shader 10 finished CTA #0 (39619,0), 5 CTAs running
GPGPU-Sim uArch: core: 10, cta: 0 initialized @(39620,0)
GPGPU-Sim uArch: Shader 9 finished CTA #3 (39652,0), 5 CTAs running
GPGPU-Sim uArch: core:  9, cta: 3 initialized @(39653,0)
GPGPU-Sim uArch: Shader 11 finished CTA #4 (39661,0), 5 CTAs running
GPGPU-Sim uArch: core: 11, cta: 4 initialized @(39662,0)
GPGPU-Sim uArch: Shader 10 finished CTA #1 (39700,0), 5 CTAs running
GPGPU-Sim uArch: core: 10, cta: 1 initialized @(39701,0)
GPGPU-Sim uArch: Shader 9 finished CTA #4 (39706,0), 5 CTAs running
GPGPU-Sim uArch: core:  9, cta: 4 initialized @(39707,0)
GPGPU-Sim uArch: Shader 9 finished CTA #5 (39718,0), 5 CTAs running
GPGPU-Sim uArch: core:  9, cta: 5 initialized @(39719,0)
GPGPU-Sim uArch: Shader 10 finished CTA #2 (39750,0), 5 CTAs running
GPGPU-Sim uArch: core: 10, cta: 2 initialized @(39751,0)
GPGPU-Sim uArch: Shader 10 finished CTA #3 (39822,0), 5 CTAs running
GPGPU-Sim uArch: core: 10, cta: 3 initialized @(39823,0)
GPGPU-Sim uArch: Shader 10 finished CTA #4 (39851,0), 5 CTAs running
GPGPU-Sim uArch: core: 10, cta: 4 initialized @(39852,0)
GPGPU-Sim uArch: Shader 10 finished CTA #5 (39934,0), 5 CTAs running
GPGPU-Sim uArch: core: 10, cta: 5 initialized @(39935,0)
GPGPU-Sim uArch: Shader 12 finished CTA #0 (39946,0), 5 CTAs running
GPGPU-Sim uArch: core: 12, cta: 0 initialized @(39947,0)
GPGPU-Sim uArch: Shader 12 finished CTA #3 (40027,0), 5 CTAs running
GPGPU-Sim uArch: core: 12, cta: 3 initialized @(40028,0)
GPGPU-Sim uArch: Shader 3 finished CTA #5 (40079,0), 5 CTAs running
GPGPU-Sim uArch: core:  3, cta: 5 initialized @(40080,0)
GPGPU-Sim uArch: Shader 12 finished CTA #4 (40082,0), 5 CTAs running
GPGPU-Sim uArch: core: 12, cta: 4 initialized @(40083,0)
GPGPU-Sim uArch: Shader 12 finished CTA #1 (40084,0), 5 CTAs running
GPGPU-Sim uArch: core: 12, cta: 1 initialized @(40085,0)
GPGPU-Sim uArch: Shader 12 finished CTA #2 (40108,0), 5 CTAs running
GPGPU-Sim uArch: core: 12, cta: 2 initialized @(40109,0)
GPGPU-Sim uArch: Shader 13 finished CTA #2 (40168,0), 5 CTAs running
GPGPU-Sim uArch: core: 13, cta: 2 initialized @(40169,0)
GPGPU-Sim uArch: Shader 3 finished CTA #0 (40170,0), 5 CTAs running
GPGPU-Sim uArch: core:  3, cta: 0 initialized @(40171,0)
GPGPU-Sim uArch: Shader 2 finished CTA #4 (40182,0), 5 CTAs running
GPGPU-Sim uArch: core:  2, cta: 4 initialized @(40183,0)
GPGPU-Sim uArch: Shader 12 finished CTA #5 (40193,0), 5 CTAs running
GPGPU-Sim uArch: core: 12, cta: 5 initialized @(40194,0)
GPGPU-Sim uArch: Shader 13 finished CTA #3 (40204,0), 5 CTAs running
GPGPU-Sim uArch: core: 13, cta: 3 initialized @(40205,0)
GPGPU-Sim uArch: Shader 2 finished CTA #5 (40209,0), 5 CTAs running
GPGPU-Sim uArch: core:  2, cta: 5 initialized @(40210,0)
GPGPU-Sim uArch: Shader 3 finished CTA #1 (40222,0), 5 CTAs running
GPGPU-Sim uArch: core:  3, cta: 1 initialized @(40223,0)
GPGPU-Sim uArch: Shader 4 finished CTA #4 (40243,0), 5 CTAs running
GPGPU-Sim uArch: Shader 13 finished CTA #0 (40243,0), 5 CTAs running
GPGPU-Sim uArch: core:  4, cta: 4 initialized @(40244,0)
GPGPU-Sim uArch: core: 13, cta: 0 initialized @(40244,0)
GPGPU-Sim uArch: Shader 3 finished CTA #3 (40246,0), 5 CTAs running
GPGPU-Sim uArch: core:  3, cta: 3 initialized @(40247,0)
GPGPU-Sim uArch: Shader 2 finished CTA #0 (40250,0), 5 CTAs running
GPGPU-Sim uArch: core:  2, cta: 0 initialized @(40251,0)
GPGPU-Sim uArch: Shader 3 finished CTA #4 (40265,0), 5 CTAs running
GPGPU-Sim uArch: core:  3, cta: 4 initialized @(40266,0)
GPGPU-Sim uArch: Shader 13 finished CTA #4 (40286,0), 5 CTAs running
GPGPU-Sim uArch: core: 13, cta: 4 initialized @(40287,0)
GPGPU-Sim uArch: Shader 2 finished CTA #1 (40304,0), 5 CTAs running
GPGPU-Sim uArch: core:  2, cta: 1 initialized @(40305,0)
GPGPU-Sim uArch: Shader 3 finished CTA #2 (40333,0), 5 CTAs running
GPGPU-Sim uArch: core:  3, cta: 2 initialized @(40334,0)
GPGPU-Sim uArch: Shader 13 finished CTA #1 (40338,0), 5 CTAs running
GPGPU-Sim uArch: core: 13, cta: 1 initialized @(40339,0)
GPGPU-Sim uArch: Shader 1 finished CTA #0 (40359,0), 5 CTAs running
GPGPU-Sim uArch: core:  1, cta: 0 initialized @(40360,0)
GPGPU-Sim uArch: Shader 13 finished CTA #5 (40369,0), 5 CTAs running
GPGPU-Sim uArch: core: 13, cta: 5 initialized @(40370,0)
GPGPU-Sim uArch: Shader 4 finished CTA #5 (40424,0), 5 CTAs running
GPGPU-Sim uArch: core:  4, cta: 5 initialized @(40425,0)
GPGPU-Sim uArch: Shader 4 finished CTA #0 (40443,0), 5 CTAs running
GPGPU-Sim uArch: core:  4, cta: 0 initialized @(40444,0)
GPGPU-Sim uArch: Shader 1 finished CTA #2 (40459,0), 5 CTAs running
GPGPU-Sim uArch: Shader 4 finished CTA #2 (40459,0), 5 CTAs running
GPGPU-Sim uArch: core:  1, cta: 2 initialized @(40460,0)
GPGPU-Sim uArch: core:  4, cta: 2 initialized @(40460,0)
GPGPU-Sim uArch: Shader 1 finished CTA #1 (40471,0), 5 CTAs running
GPGPU-Sim uArch: core:  1, cta: 1 initialized @(40472,0)
GPGPU-Sim uArch: Shader 4 finished CTA #1 (40475,0), 5 CTAs running
GPGPU-Sim uArch: core:  4, cta: 1 initialized @(40476,0)
GPGPU-Sim uArch: Shader 4 finished CTA #3 (40483,0), 5 CTAs running
GPGPU-Sim uArch: core:  4, cta: 3 initialized @(40484,0)
GPGPU-Sim uArch: Shader 0 finished CTA #2 (40486,0), 5 CTAs running
GPGPU-Sim uArch: core:  0, cta: 2 initialized @(40487,0)
GPGPU-Sim uArch: Shader 1 finished CTA #4 (40490,0), 5 CTAs running
GPGPU-Sim uArch: core:  1, cta: 4 initialized @(40491,0)
GPGPU-Sim uArch: Shader 1 finished CTA #5 (40517,0), 5 CTAs running
GPGPU-Sim uArch: core:  1, cta: 5 initialized @(40518,0)
GPGPU-Sim uArch: Shader 6 finished CTA #0 (40538,0), 5 CTAs running
GPGPU-Sim uArch: core:  6, cta: 0 initialized @(40539,0)
GPGPU-Sim uArch: Shader 5 finished CTA #2 (40542,0), 5 CTAs running
GPGPU-Sim uArch: core:  5, cta: 2 initialized @(40543,0)
GPGPU-Sim uArch: Shader 5 finished CTA #4 (40551,0), 5 CTAs running
GPGPU-Sim uArch: core:  5, cta: 4 initialized @(40552,0)
GPGPU-Sim uArch: Shader 1 finished CTA #3 (40565,0), 5 CTAs running
GPGPU-Sim uArch: core:  1, cta: 3 initialized @(40566,0)
GPGPU-Sim uArch: Shader 5 finished CTA #3 (40584,0), 5 CTAs running
GPGPU-Sim uArch: core:  5, cta: 3 initialized @(40585,0)
GPGPU-Sim uArch: Shader 6 finished CTA #3 (40602,0), 5 CTAs running
GPGPU-Sim uArch: core:  6, cta: 3 initialized @(40603,0)
GPGPU-Sim uArch: Shader 5 finished CTA #5 (40607,0), 5 CTAs running
GPGPU-Sim uArch: core:  5, cta: 5 initialized @(40608,0)
GPGPU-Sim uArch: Shader 0 finished CTA #5 (40635,0), 5 CTAs running
GPGPU-Sim uArch: core:  0, cta: 5 initialized @(40636,0)
GPGPU-Sim uArch: Shader 0 finished CTA #3 (40644,0), 5 CTAs running
GPGPU-Sim uArch: core:  0, cta: 3 initialized @(40645,0)
GPGPU-Sim uArch: Shader 0 finished CTA #4 (40653,0), 5 CTAs running
GPGPU-Sim uArch: core:  0, cta: 4 initialized @(40654,0)
GPGPU-Sim uArch: Shader 6 finished CTA #4 (40667,0), 5 CTAs running
GPGPU-Sim uArch: core:  6, cta: 4 initialized @(40668,0)
GPGPU-Sim uArch: Shader 8 finished CTA #1 (40669,0), 5 CTAs running
GPGPU-Sim uArch: core:  8, cta: 1 initialized @(40670,0)
GPGPU-Sim uArch: Shader 5 finished CTA #1 (40695,0), 5 CTAs running
GPGPU-Sim uArch: core:  5, cta: 1 initialized @(40696,0)
GPGPU-Sim uArch: Shader 6 finished CTA #1 (40731,0), 5 CTAs running
GPGPU-Sim uArch: core:  6, cta: 1 initialized @(40732,0)
GPGPU-Sim uArch: Shader 6 finished CTA #2 (40740,0), 5 CTAs running
GPGPU-Sim uArch: core:  6, cta: 2 initialized @(40741,0)
GPGPU-Sim uArch: Shader 5 finished CTA #0 (40748,0), 5 CTAs running
GPGPU-Sim uArch: core:  5, cta: 0 initialized @(40749,0)
GPGPU-Sim uArch: Shader 8 finished CTA #3 (40762,0), 5 CTAs running
GPGPU-Sim uArch: core:  8, cta: 3 initialized @(40763,0)
GPGPU-Sim uArch: Shader 6 finished CTA #5 (40765,0), 5 CTAs running
GPGPU-Sim uArch: core:  6, cta: 5 initialized @(40766,0)
GPGPU-Sim uArch: Shader 0 finished CTA #0 (40777,0), 5 CTAs running
GPGPU-Sim uArch: Shader 0 finished CTA #1 (40777,0), 4 CTAs running
GPGPU-Sim uArch: core:  0, cta: 0 initialized @(40778,0)
GPGPU-Sim uArch: core:  0, cta: 1 initialized @(40779,0)
GPGPU-Sim uArch: Shader 8 finished CTA #2 (40789,0), 5 CTAs running
GPGPU-Sim uArch: core:  8, cta: 2 initialized @(40790,0)
GPGPU-Sim uArch: Shader 8 finished CTA #5 (40813,0), 5 CTAs running
GPGPU-Sim uArch: Shader 8 finished CTA #0 (40813,0), 4 CTAs running
GPGPU-Sim uArch: core:  8, cta: 0 initialized @(40814,0)
GPGPU-Sim uArch: core:  8, cta: 5 initialized @(40815,0)
GPGPU-Sim uArch: Shader 8 finished CTA #4 (40887,0), 5 CTAs running
GPGPU-Sim uArch: core:  8, cta: 4 initialized @(40888,0)
GPGPU-Sim uArch: Shader 7 finished CTA #1 (44450,0), 5 CTAs running
GPGPU-Sim uArch: core:  7, cta: 1 initialized @(44451,0)
GPGPU-Sim uArch: Shader 2 finished CTA #2 (45071,0), 5 CTAs running
GPGPU-Sim uArch: core:  2, cta: 2 initialized @(45072,0)
GPGPU-Sim uArch: Shader 2 finished CTA #3 (47213,0), 5 CTAs running
GPGPU-Sim uArch: core:  2, cta: 3 initialized @(47214,0)
GPGPU-Sim uArch: Shader 7 finished CTA #2 (48226,0), 5 CTAs running
GPGPU-Sim uArch: core:  7, cta: 2 initialized @(48227,0)
GPGPU-Sim uArch: Shader 7 finished CTA #3 (48334,0), 5 CTAs running
GPGPU-Sim uArch: core:  7, cta: 3 initialized @(48335,0)
GPGPU-Sim uArch: Shader 7 finished CTA #4 (48471,0), 5 CTAs running
GPGPU-Sim uArch: core:  7, cta: 4 initialized @(48472,0)
GPGPU-Sim uArch: Shader 7 finished CTA #5 (48481,0), 5 CTAs running
GPGPU-Sim uArch: core:  7, cta: 5 initialized @(48482,0)
GPGPU-Sim uArch: Shader 7 finished CTA #0 (48539,0), 5 CTAs running
GPGPU-Sim uArch: core:  7, cta: 0 initialized @(48540,0)
GPGPU-Sim uArch: Shader 11 finished CTA #0 (48617,0), 5 CTAs running
GPGPU-Sim uArch: core: 11, cta: 0 initialized @(48618,0)
GPGPU-Sim uArch: Shader 1 finished CTA #0 (48627,0), 5 CTAs running
GPGPU-Sim uArch: core:  1, cta: 0 initialized @(48628,0)
GPGPU-Sim uArch: Shader 11 finished CTA #1 (48697,0), 5 CTAs running
GPGPU-Sim uArch: core: 11, cta: 1 initialized @(48698,0)
GPGPU-Sim uArch: Shader 2 finished CTA #4 (48749,0), 5 CTAs running
GPGPU-Sim uArch: core:  2, cta: 4 initialized @(48750,0)
GPGPU-Sim uArch: Shader 11 finished CTA #2 (48760,0), 5 CTAs running
GPGPU-Sim uArch: core: 11, cta: 2 initialized @(48761,0)
GPGPU-Sim uArch: Shader 11 finished CTA #5 (48815,0), 5 CTAs running
GPGPU-Sim uArch: core: 11, cta: 5 initialized @(48816,0)
GPGPU-Sim uArch: Shader 2 finished CTA #5 (48835,0), 5 CTAs running
GPGPU-Sim uArch: core:  2, cta: 5 initialized @(48836,0)
GPGPU-Sim uArch: Shader 11 finished CTA #4 (48838,0), 5 CTAs running
GPGPU-Sim uArch: core: 11, cta: 4 initialized @(48839,0)
GPGPU-Sim uArch: Shader 11 finished CTA #3 (48851,0), 5 CTAs running
GPGPU-Sim uArch: core: 11, cta: 3 initialized @(48852,0)
GPGPU-Sim uArch: Shader 2 finished CTA #0 (49030,0), 5 CTAs running
GPGPU-Sim uArch: core:  2, cta: 0 initialized @(49031,0)
GPGPU-Sim uArch: Shader 9 finished CTA #0 (49081,0), 5 CTAs running
GPGPU-Sim uArch: core:  9, cta: 0 initialized @(49082,0)
GPGPU-Sim uArch: Shader 2 finished CTA #1 (49092,0), 5 CTAs running
GPGPU-Sim uArch: core:  2, cta: 1 initialized @(49093,0)
GPGPU-Sim uArch: Shader 9 finished CTA #1 (49173,0), 5 CTAs running
GPGPU-Sim uArch: core:  9, cta: 1 initialized @(49174,0)
GPGPU-Sim uArch: Shader 9 finished CTA #2 (49206,0), 5 CTAs running
GPGPU-Sim uArch: core:  9, cta: 2 initialized @(49207,0)
GPGPU-Sim uArch: Shader 10 finished CTA #1 (49326,0), 5 CTAs running
GPGPU-Sim uArch: core: 10, cta: 1 initialized @(49327,0)
GPGPU-Sim uArch: Shader 9 finished CTA #3 (49330,0), 5 CTAs running
GPGPU-Sim uArch: core:  9, cta: 3 initialized @(49331,0)
GPGPU-Sim uArch: Shader 3 finished CTA #0 (49380,0), 5 CTAs running
GPGPU-Sim uArch: core:  3, cta: 0 initialized @(49381,0)
GPGPU-Sim uArch: Shader 3 finished CTA #1 (49467,0), 5 CTAs running
GPGPU-Sim uArch: core:  3, cta: 1 initialized @(49468,0)
GPGPU-Sim uArch: Shader 3 finished CTA #5 (49477,0), 5 CTAs running
GPGPU-Sim uArch: core:  3, cta: 5 initialized @(49478,0)
GPGPU-Sim uArch: Shader 9 finished CTA #4 (49499,0), 5 CTAs running
GPGPU-Sim uArch: core:  9, cta: 4 initialized @(49500,0)
GPGPU-Sim uArch: Shader 3 finished CTA #2 (49502,0), 5 CTAs running
GPGPU-Sim uArch: core:  3, cta: 2 initialized @(49503,0)
GPGPU-Sim uArch: Shader 10 finished CTA #2 (49533,0), 5 CTAs running
GPGPU-Sim uArch: core: 10, cta: 2 initialized @(49534,0)
GPGPU-Sim uArch: Shader 9 finished CTA #5 (49534,0), 5 CTAs running
GPGPU-Sim uArch: core:  9, cta: 5 initialized @(49535,0)
GPGPU-Sim uArch: Shader 3 finished CTA #3 (49546,0), 5 CTAs running
GPGPU-Sim uArch: core:  3, cta: 3 initialized @(49547,0)
GPGPU-Sim uArch: Shader 10 finished CTA #3 (49547,0), 5 CTAs running
GPGPU-Sim uArch: core: 10, cta: 3 initialized @(49548,0)
GPGPU-Sim uArch: Shader 3 finished CTA #4 (49582,0), 5 CTAs running
GPGPU-Sim uArch: core:  3, cta: 4 initialized @(49583,0)
GPGPU-Sim uArch: Shader 10 finished CTA #0 (49641,0), 5 CTAs running
GPGPU-Sim uArch: core: 10, cta: 0 initialized @(49642,0)
GPGPU-Sim uArch: Shader 10 finished CTA #4 (49672,0), 5 CTAs running
GPGPU-Sim uArch: core: 10, cta: 4 initialized @(49673,0)
GPGPU-Sim uArch: Shader 12 finished CTA #1 (49689,0), 5 CTAs running
GPGPU-Sim uArch: core: 12, cta: 1 initialized @(49690,0)
GPGPU-Sim uArch: Shader 10 finished CTA #5 (49694,0), 5 CTAs running
GPGPU-Sim uArch: core: 10, cta: 5 initialized @(49695,0)
GPGPU-Sim uArch: Shader 12 finished CTA #0 (49699,0), 5 CTAs running
GPGPU-Sim uArch: core: 12, cta: 0 initialized @(49700,0)
GPGPU-Sim uArch: Shader 12 finished CTA #2 (49703,0), 5 CTAs running
GPGPU-Sim uArch: core: 12, cta: 2 initialized @(49704,0)
GPGPU-Sim uArch: Shader 12 finished CTA #3 (49751,0), 5 CTAs running
GPGPU-Sim uArch: core: 12, cta: 3 initialized @(49752,0)
GPGPU-Sim uArch: Shader 12 finished CTA #4 (49783,0), 5 CTAs running
GPGPU-Sim uArch: Shader 12 finished CTA #5 (49783,0), 4 CTAs running
GPGPU-Sim uArch: core: 12, cta: 4 initialized @(49784,0)
GPGPU-Sim uArch: core: 12, cta: 5 initialized @(49785,0)
GPGPU-Sim uArch: Shader 4 finished CTA #4 (49819,0), 5 CTAs running
GPGPU-Sim uArch: core:  4, cta: 4 initialized @(49820,0)
GPGPU-Sim uArch: Shader 13 finished CTA #2 (49826,0), 5 CTAs running
GPGPU-Sim uArch: core: 13, cta: 2 initialized @(49827,0)
GPGPU-Sim uArch: Shader 4 finished CTA #5 (49853,0), 5 CTAs running
GPGPU-Sim uArch: core:  4, cta: 5 initialized @(49854,0)
GPGPU-Sim uArch: Shader 13 finished CTA #4 (49880,0), 5 CTAs running
GPGPU-Sim uArch: core: 13, cta: 4 initialized @(49881,0)
GPGPU-Sim uArch: Shader 13 finished CTA #3 (49897,0), 5 CTAs running
GPGPU-Sim uArch: core: 13, cta: 3 initialized @(49898,0)
GPGPU-Sim uArch: Shader 4 finished CTA #0 (49898,0), 5 CTAs running
GPGPU-Sim uArch: core:  4, cta: 0 initialized @(49899,0)
GPGPU-Sim uArch: Shader 13 finished CTA #5 (49918,0), 5 CTAs running
GPGPU-Sim uArch: core: 13, cta: 5 initialized @(49919,0)
GPGPU-Sim uArch: Shader 13 finished CTA #0 (49948,0), 5 CTAs running
GPGPU-Sim uArch: core: 13, cta: 0 initialized @(49949,0)
GPGPU-Sim uArch: Shader 4 finished CTA #1 (50002,0), 5 CTAs running
GPGPU-Sim uArch: core:  4, cta: 1 initialized @(50003,0)
GPGPU-Sim uArch: Shader 13 finished CTA #1 (50013,0), 5 CTAs running
GPGPU-Sim uArch: core: 13, cta: 1 initialized @(50014,0)
GPGPU-Sim uArch: Shader 4 finished CTA #3 (50067,0), 5 CTAs running
GPGPU-Sim uArch: core:  4, cta: 3 initialized @(50068,0)
GPGPU-Sim uArch: Shader 6 finished CTA #0 (50144,0), 5 CTAs running
GPGPU-Sim uArch: core:  6, cta: 0 initialized @(50145,0)
GPGPU-Sim uArch: Shader 4 finished CTA #2 (50147,0), 5 CTAs running
GPGPU-Sim uArch: core:  4, cta: 2 initialized @(50148,0)
GPGPU-Sim uArch: Shader 1 finished CTA #1 (50219,0), 5 CTAs running
GPGPU-Sim uArch: core:  1, cta: 1 initialized @(50220,0)
GPGPU-Sim uArch: Shader 1 finished CTA #2 (50233,0), 5 CTAs running
GPGPU-Sim uArch: core:  1, cta: 2 initialized @(50234,0)
GPGPU-Sim uArch: Shader 6 finished CTA #3 (50327,0), 5 CTAs running
GPGPU-Sim uArch: core:  6, cta: 3 initialized @(50328,0)
GPGPU-Sim uArch: Shader 1 finished CTA #3 (50337,0), 5 CTAs running
GPGPU-Sim uArch: core:  1, cta: 3 initialized @(50338,0)
GPGPU-Sim uArch: Shader 6 finished CTA #4 (50346,0), 5 CTAs running
GPGPU-Sim uArch: core:  6, cta: 4 initialized @(50347,0)
GPGPU-Sim uArch: Shader 5 finished CTA #4 (50355,0), 5 CTAs running
GPGPU-Sim uArch: core:  5, cta: 4 initialized @(50356,0)
GPGPU-Sim uArch: Shader 0 finished CTA #3 (50361,0), 5 CTAs running
GPGPU-Sim uArch: core:  0, cta: 3 initialized @(50362,0)
GPGPU-Sim uArch: Shader 6 finished CTA #5 (50362,0), 5 CTAs running
GPGPU-Sim uArch: core:  6, cta: 5 initialized @(50363,0)
GPGPU-Sim uArch: Shader 5 finished CTA #5 (50369,0), 5 CTAs running
GPGPU-Sim uArch: core:  5, cta: 5 initialized @(50370,0)
GPGPU-Sim uArch: Shader 0 finished CTA #4 (50370,0), 5 CTAs running
GPGPU-Sim uArch: core:  0, cta: 4 initialized @(50371,0)
GPGPU-Sim uArch: Shader 8 finished CTA #1 (50377,0), 5 CTAs running
GPGPU-Sim uArch: core:  8, cta: 1 initialized @(50378,0)
GPGPU-Sim uArch: Shader 6 finished CTA #1 (50386,0), 5 CTAs running
GPGPU-Sim uArch: core:  6, cta: 1 initialized @(50387,0)
GPGPU-Sim uArch: Shader 0 finished CTA #5 (50397,0), 5 CTAs running
GPGPU-Sim uArch: core:  0, cta: 5 initialized @(50398,0)
GPGPU-Sim uArch: Shader 0 finished CTA #2 (50412,0), 5 CTAs running
GPGPU-Sim uArch: core:  0, cta: 2 initialized @(50413,0)
GPGPU-Sim uArch: Shader 8 finished CTA #2 (50413,0), 5 CTAs running
GPGPU-Sim uArch: core:  8, cta: 2 initialized @(50414,0)
GPGPU-Sim uArch: Shader 1 finished CTA #4 (50415,0), 5 CTAs running
GPGPU-Sim uArch: core:  1, cta: 4 initialized @(50416,0)
GPGPU-Sim uArch: Shader 6 finished CTA #2 (50418,0), 5 CTAs running
GPGPU-Sim uArch: core:  6, cta: 2 initialized @(50419,0)
GPGPU-Sim uArch: Shader 8 finished CTA #4 (50427,0), 5 CTAs running
GPGPU-Sim uArch: core:  8, cta: 4 initialized @(50428,0)
GPGPU-Sim uArch: Shader 5 finished CTA #2 (50430,0), 5 CTAs running
GPGPU-Sim uArch: core:  5, cta: 2 initialized @(50431,0)
GPGPU-Sim uArch: Shader 1 finished CTA #5 (50435,0), 5 CTAs running
GPGPU-Sim uArch: core:  1, cta: 5 initialized @(50436,0)
GPGPU-Sim uArch: Shader 8 finished CTA #5 (50439,0), 5 CTAs running
GPGPU-Sim uArch: Shader 8 finished CTA #0 (50439,0), 4 CTAs running
GPGPU-Sim uArch: core:  8, cta: 0 initialized @(50440,0)
GPGPU-Sim uArch: core:  8, cta: 5 initialized @(50441,0)
GPGPU-Sim uArch: Shader 5 finished CTA #0 (50460,0), 5 CTAs running
GPGPU-Sim uArch: Shader 5 finished CTA #1 (50460,0), 4 CTAs running
GPGPU-Sim uArch: core:  5, cta: 0 initialized @(50461,0)
[...]
GPGPU-Sim uArch: Shader 4 finished CTA #0 (156301,470159), 1 CTAs running
GPGPU-Sim uArch: Shader 3 finished CTA #2 (156313,470159), 4 CTAs running
GPGPU-Sim uArch: Shader 12 finished CTA #2 (156315,470159), 1 CTAs running
GPGPU-Sim uArch: Shader 11 finished CTA #3 (156337,470159), 0 CTAs running
GPGPU-Sim uArch: Shader 11 empty (release kernel 2 '_Z24bpnn_adjust_weights_cudaPfiS_iS_S_').
GPGPU-Sim uArch: Shader 4 finished CTA #1 (156341,470159), 0 CTAs running
GPGPU-Sim uArch: Shader 4 empty (release kernel 2 '_Z24bpnn_adjust_weights_cudaPfiS_iS_S_').
GPGPU-Sim uArch: Shader 7 finished CTA #3 (156347,470159), 4 CTAs running
GPGPU-Sim uArch: Shader 5 finished CTA #3 (156357,470159), 1 CTAs running
GPGPU-Sim uArch: Shader 5 finished CTA #0 (156369,470159), 0 CTAs running
GPGPU-Sim uArch: Shader 5 empty (release kernel 2 '_Z24bpnn_adjust_weights_cudaPfiS_iS_S_').
GPGPU-Sim uArch: Shader 3 finished CTA #0 (156405,470159), 3 CTAs running
GPGPU-Sim uArch: Shader 8 finished CTA #1 (156416,470159), 4 CTAs running
GPGPU-Sim uArch: Shader 9 finished CTA #0 (156425,470159), 4 CTAs running
GPGPU-Sim uArch: Shader 7 finished CTA #2 (156431,470159), 3 CTAs running
GPGPU-Sim uArch: Shader 13 finished CTA #0 (156465,470159), 4 CTAs running
GPGPU-Sim uArch: Shader 8 finished CTA #3 (156481,470159), 3 CTAs running
GPGPU-Sim uArch: Shader 3 finished CTA #3 (156491,470159), 2 CTAs running
GPGPU-Sim uArch: Shader 1 finished CTA #0 (156495,470159), 2 CTAs running
GPGPU-Sim uArch: Shader 8 finished CTA #4 (156499,470159), 2 CTAs running
GPGPU-Sim uArch: Shader 8 finished CTA #2 (156501,470159), 1 CTAs running
GPGPU-Sim uArch: Shader 12 finished CTA #1 (156509,470159), 0 CTAs running
GPGPU-Sim uArch: Shader 12 empty (release kernel 2 '_Z24bpnn_adjust_weights_cudaPfiS_iS_S_').
GPGPU-Sim uArch: Shader 0 finished CTA #0 (156513,470159), 1 CTAs running
GPGPU-Sim uArch: Shader 3 finished CTA #1 (156515,470159), 1 CTAs running
GPGPU-Sim uArch: Shader 10 finished CTA #1 (156515,470159), 2 CTAs running
GPGPU-Sim uArch: Shader 13 finished CTA #2 (156522,470159), 3 CTAs running
GPGPU-Sim uArch: Shader 0 finished CTA #1 (156523,470159), 0 CTAs running
GPGPU-Sim uArch: Shader 0 empty (release kernel 2 '_Z24bpnn_adjust_weights_cudaPfiS_iS_S_').
GPGPU-Sim uArch: Shader 8 finished CTA #0 (156535,470159), 0 CTAs running
GPGPU-Sim uArch: Shader 8 empty (release kernel 2 '_Z24bpnn_adjust_weights_cudaPfiS_iS_S_').
GPGPU-Sim uArch: Shader 7 finished CTA #0 (156537,470159), 2 CTAs running
GPGPU-Sim uArch: Shader 1 finished CTA #1 (156543,470159), 1 CTAs running
GPGPU-Sim uArch: Shader 13 finished CTA #3 (156545,470159), 2 CTAs running
GPGPU-Sim uArch: Shader 3 finished CTA #4 (156561,470159), 0 CTAs running
GPGPU-Sim uArch: Shader 3 empty (release kernel 2 '_Z24bpnn_adjust_weights_cudaPfiS_iS_S_').
GPGPU-Sim uArch: Shader 7 finished CTA #4 (156573,470159), 1 CTAs running
GPGPU-Sim uArch: Shader 7 finished CTA #1 (156589,470159), 0 CTAs running
GPGPU-Sim uArch: Shader 7 empty (release kernel 2 '_Z24bpnn_adjust_weights_cudaPfiS_iS_S_').
GPGPU-Sim uArch: Shader 10 finished CTA #3 (156665,470159), 1 CTAs running
GPGPU-Sim uArch: Shader 9 finished CTA #1 (156689,470159), 3 CTAs running
GPGPU-Sim uArch: Shader 13 finished CTA #1 (156689,470159), 1 CTAs running
GPGPU-Sim uArch: Shader 13 finished CTA #4 (156697,470159), 0 CTAs running
GPGPU-Sim uArch: Shader 13 empty (release kernel 2 '_Z24bpnn_adjust_weights_cudaPfiS_iS_S_').
GPGPU-Sim uArch: Shader 1 finished CTA #4 (156711,470159), 0 CTAs running
GPGPU-Sim uArch: Shader 1 empty (release kernel 2 '_Z24bpnn_adjust_weights_cudaPfiS_iS_S_').
GPGPU-Sim uArch: Shader 10 finished CTA #4 (156733,470159), 0 CTAs running
GPGPU-Sim uArch: Shader 10 empty (release kernel 2 '_Z24bpnn_adjust_weights_cudaPfiS_iS_S_').
GPGPU-Sim uArch: Shader 9 finished CTA #2 (156795,470159), 2 CTAs running
GPGPU-Sim uArch: Shader 9 finished CTA #4 (156971,470159), 1 CTAs running
GPGPU-Sim uArch: Shader 9 finished CTA #3 (156982,470159), 0 CTAs running
GPGPU-Sim uArch: Shader 9 empty (release kernel 2 '_Z24bpnn_adjust_weights_cudaPfiS_iS_S_').
GPGPU-Sim uArch: GPU detected kernel '_Z24bpnn_adjust_weights_cudaPfiS_iS_S_' finished on shader 9.
kernel_name = _Z24bpnn_adjust_weights_cudaPfiS_iS_S_ 
kernel_launch_uid = 2 
gpu_sim_cycle = 156983
gpu_sim_insn = 59834720
gpu_ipc =     381.1541
gpu_tot_sim_cycle = 627142
gpu_tot_sim_insn = 329974112
gpu_tot_ipc =     526.1553
gpu_tot_issued_cta = 0
gpu_stall_dramfull = 539563
gpu_stall_icnt2sh    = 1208431
gpu_total_sim_rate=555511

========= Core cache stats =========
L1I_cache:
	L1I_total_cache_accesses = 6143568
	L1I_total_cache_misses = 3652
	L1I_total_cache_miss_rate = 0.0006
	L1I_total_cache_pending_hits = 0
	L1I_total_cache_reservation_fails = 6970
L1D_cache:
	L1D_cache_core[0]: Access = 46971, Miss = 17329, Miss_rate = 0.369, Pending_hits = 6149, Reservation_fails = 121370
	L1D_cache_core[1]: Access = 47213, Miss = 17430, Miss_rate = 0.369, Pending_hits = 5643, Reservation_fails = 112791
	L1D_cache_core[2]: Access = 47701, Miss = 17875, Miss_rate = 0.375, Pending_hits = 5811, Reservation_fails = 110983
	L1D_cache_core[3]: Access = 46847, Miss = 17189, Miss_rate = 0.367, Pending_hits = 5831, Reservation_fails = 117942
	L1D_cache_core[4]: Access = 48518, Miss = 17806, Miss_rate = 0.367, Pending_hits = 6467, Reservation_fails = 119912
	L1D_cache_core[5]: Access = 46883, Miss = 17335, Miss_rate = 0.370, Pending_hits = 6084, Reservation_fails = 121108
	L1D_cache_core[6]: Access = 47273, Miss = 17353, Miss_rate = 0.367, Pending_hits = 5987, Reservation_fails = 120489
	L1D_cache_core[7]: Access = 47990, Miss = 17648, Miss_rate = 0.368, Pending_hits = 6251, Reservation_fails = 114755
	L1D_cache_core[8]: Access = 47869, Miss = 17636, Miss_rate = 0.368, Pending_hits = 5875, Reservation_fails = 118032
	L1D_cache_core[9]: Access = 47317, Miss = 17448, Miss_rate = 0.369, Pending_hits = 5960, Reservation_fails = 116276
	L1D_cache_core[10]: Access = 45309, Miss = 16795, Miss_rate = 0.371, Pending_hits = 5810, Reservation_fails = 116688
	L1D_cache_core[11]: Access = 47578, Miss = 17505, Miss_rate = 0.368, Pending_hits = 6090, Reservation_fails = 117869
	L1D_cache_core[12]: Access = 46186, Miss = 17020, Miss_rate = 0.369, Pending_hits = 6080, Reservation_fails = 120250
	L1D_cache_core[13]: Access = 47856, Miss = 17638, Miss_rate = 0.369, Pending_hits = 6545, Reservation_fails = 121983
	L1D_total_cache_accesses = 661511
	L1D_total_cache_misses = 244007
	L1D_total_cache_miss_rate = 0.3689
	L1D_total_cache_pending_hits = 84583
	L1D_total_cache_reservation_fails = 1650448
	L1D_cache_data_port_util = 0.038
	L1D_cache_fill_port_util = 0.019
L1C_cache:
	L1C_total_cache_accesses = 0
	L1C_total_cache_misses = 0
	L1C_total_cache_pending_hits = 0
	L1C_total_cache_reservation_fails = 0
L1T_cache:
	L1T_total_cache_accesses = 0
	L1T_total_cache_misses = 0
	L1T_total_cache_pending_hits = 0
	L1T_total_cache_reservation_fails = 0

Total_core_cache_stats:
	Total_core_cache_stats_breakdown[GLOBAL_ACC_R][HIT] = 186063
	Total_core_cache_stats_breakdown[GLOBAL_ACC_R][HIT_RESERVED] = 84536
	Total_core_cache_stats_breakdown[GLOBAL_ACC_R][MISS] = 161534
	Total_core_cache_stats_breakdown[GLOBAL_ACC_R][RESERVATION_FAIL] = 1017226
	Total_core_cache_stats_breakdown[GLOBAL_ACC_W][HIT] = 146858
	Total_core_cache_stats_breakdown[GLOBAL_ACC_W][HIT_RESERVED] = 47
	Total_core_cache_stats_breakdown[GLOBAL_ACC_W][MISS] = 82473
	Total_core_cache_stats_breakdown[GLOBAL_ACC_W][RESERVATION_FAIL] = 633222
	Total_core_cache_stats_breakdown[INST_ACC_R][HIT] = 6139916
	Total_core_cache_stats_breakdown[INST_ACC_R][MISS] = 3652
	Total_core_cache_stats_breakdown[INST_ACC_R][RESERVATION_FAIL] = 6970
Shader 0 warp_id issue ditsribution:
warp_id:
0, 1, 2, 3, 4, 5, 6, 7, 8, 9, 10, 11, 12, 13, 14, 15, 16, 17, 18, 19, 20, 21, 22, 23, 24, 25, 26, 27, 28, 29, 30, 31, 32, 33, 34, 35, 36, 37, 38, 39, 40, 41, 42, 43, 44, 45, 46, 47, 
distro:
18686, 17102, 17630, 17102, 18158, 17102, 17630, 17102, 18744, 17160, 17688, 17160, 18216, 17160, 17688, 17160, 18570, 16986, 17514, 16986, 18042, 16986, 17514, 16986, 18570, 16986, 17514, 16986, 18042, 16986, 17514, 16986, 18686, 17102, 17630, 17102, 18158, 17102, 17630, 17102, 15264, 13680, 14208, 13680, 14736, 13680, 14208, 13680, 
gpgpu_n_tot_thrd_icount = 369754848
gpgpu_n_tot_w_icount = 11554839
gpgpu_n_stall_shd_mem = 1885968
gpgpu_n_mem_read_local = 0
gpgpu_n_mem_write_local = 0
gpgpu_n_mem_read_global = 161534
gpgpu_n_mem_write_global = 229378
gpgpu_n_mem_texture = 0
gpgpu_n_mem_const = 0
gpgpu_n_load_insn  = 8454224
gpgpu_n_store_insn = 3211296
gpgpu_n_shmem_insn = 6356992
gpgpu_n_tex_insn = 0
gpgpu_n_const_mem_insn = 0
gpgpu_n_param_mem_insn = 0
gpgpu_n_shmem_bkconflict = 0
gpgpu_n_cache_bkconflict = 0
gpgpu_n_intrawarp_mshr_merge = 0
gpgpu_n_cmem_portconflict = 0
gpgpu_stall_shd_mem[c_mem][bk_conf] = 0
gpgpu_stall_shd_mem[c_mem][mshr_rc] = 0
gpgpu_stall_shd_mem[c_mem][icnt_rc] = 0
gpgpu_stall_shd_mem[c_mem][data_port_stall] = 0
gpgpu_stall_shd_mem[t_mem][mshr_rc] = 0
gpgpu_stall_shd_mem[t_mem][icnt_rc] = 0
gpgpu_stall_shd_mem[t_mem][data_port_stall] = 0
gpgpu_stall_shd_mem[s_mem][bk_conf] = 0
gpgpu_stall_shd_mem[gl_mem][bk_conf] = 0
gpgpu_stall_shd_mem[gl_mem][coal_stall] = 1885968
gpgpu_stall_shd_mem[gl_mem][data_port_stall] = 0
gpgpu_stall_shd_mem[g_mem_ld][mshr_rc] = 0
gpgpu_stall_shd_mem[g_mem_ld][icnt_rc] = 0
gpgpu_stall_shd_mem[g_mem_ld][wb_icnt_rc] = 0
gpgpu_stall_shd_mem[g_mem_ld][wb_rsrv_fail] = 0
gpgpu_stall_shd_mem[g_mem_st][mshr_rc] = 0
gpgpu_stall_shd_mem[g_mem_st][icnt_rc] = 0
gpgpu_stall_shd_mem[g_mem_st][wb_icnt_rc] = 0
gpgpu_stall_shd_mem[g_mem_st][wb_rsrv_fail] = 0
gpgpu_stall_shd_mem[l_mem_ld][mshr_rc] = 0
gpgpu_stall_shd_mem[l_mem_ld][icnt_rc] = 0
gpgpu_stall_shd_mem[l_mem_ld][wb_icnt_rc] = 0
gpgpu_stall_shd_mem[l_mem_ld][wb_rsrv_fail] = 0
gpgpu_stall_shd_mem[l_mem_st][mshr_rc] = 0
gpgpu_stall_shd_mem[l_mem_st][icnt_rc] = 0
gpgpu_stall_shd_mem[l_mem_ld][wb_icnt_rc] = 0
gpgpu_stall_shd_mem[l_mem_ld][wb_rsrv_fail] = 0
gpu_reg_bank_conflict_stalls = 0
Warp Occupancy Distribution:
Stall:4463856	W0_Idle:764708	W0_Scoreboard:610065	W1:0	W2:720896	W3:0	W4:0	W5:0	W6:0	W7:0	W8:0	W9:0	W10:0	W11:0	W12:0	W13:0	W14:0	W15:0	W16:675863	W17:0	W18:0	W19:0	W20:0	W21:0	W22:0	W23:0	W24:0	W25:0	W26:0	W27:0	W28:0	W29:0	W30:0	W31:0	W32:10158080
traffic_breakdown_coretomem[GLOBAL_ACC_R] = 1292272 {8:161534,}
traffic_breakdown_coretomem[GLOBAL_ACC_W] = 20185360 {40:81920,72:49152,136:98306,}
traffic_breakdown_coretomem[INST_ACC_R] = 1456 {8:182,}
traffic_breakdown_memtocore[GLOBAL_ACC_R] = 21968624 {136:161534,}
traffic_breakdown_memtocore[GLOBAL_ACC_W] = 1835024 {8:229378,}
traffic_breakdown_memtocore[INST_ACC_R] = 24752 {136:182,}
Memory Partition 0: 
Cache L2_bank_000:
MSHR contents

Cache L2_bank_001:
MSHR contents

In Dram Latency Queue (total = 0): 
DRAM[0]: 16 bks, busW=4 BL=8 CL=12, tRRD=2 tCCD=6, tRCD=12 tRAS=28 tRP=12 tRC=40
n_cmd=818010 n_nop=724028 n_act=11133 n_pre=11117 n_req=36549 n_rd=36868 n_write=34864 bw_util=0.1754
n_activity=385468 dram_eff=0.3722
bk0: 2304a 774812i bk1: 2306a 773872i bk2: 2304a 774756i bk3: 2304a 773604i bk4: 2306a 775058i bk5: 2304a 773629i bk6: 2304a 772968i bk7: 2304a 771949i bk8: 2304a 774187i bk9: 2304a 773791i bk10: 2304a 774444i bk11: 2304a 772713i bk12: 2304a 772500i bk13: 2304a 772704i bk14: 2304a 773226i bk15: 2304a 772511i 
dram_util_bins: 0 0 0 0 0 0 0 0 0 0
dram_eff_bins: 0 0 0 0 0 0 0 0 0 0
mrqq: max=16 avg=2.75634
Memory Partition 1: 
Cache L2_bank_002:
MSHR contents

Cache L2_bank_003:
MSHR contents

In Dram Latency Queue (total = 0): 
DRAM[1]: 16 bks, busW=4 BL=8 CL=12, tRRD=2 tCCD=6, tRCD=12 tRAS=28 tRP=12 tRC=40
n_cmd=818010 n_nop=724002 n_act=11149 n_pre=11133 n_req=36547 n_rd=36860 n_write=34866 bw_util=0.1754
n_activity=387006 dram_eff=0.3707
bk0: 2300a 774422i bk1: 2304a 774273i bk2: 2304a 774351i bk3: 2304a 773852i bk4: 2304a 773399i bk5: 2304a 773726i bk6: 2304a 771991i bk7: 2304a 771168i bk8: 2304a 773854i bk9: 2304a 774125i bk10: 2304a 773304i bk11: 2304a 772659i bk12: 2304a 772719i bk13: 2304a 772984i bk14: 2304a 774148i bk15: 2304a 773882i 
dram_util_bins: 0 0 0 0 0 0 0 0 0 0
dram_eff_bins: 0 0 0 0 0 0 0 0 0 0
mrqq: max=16 avg=2.79035
Memory Partition 2: 
Cache L2_bank_004:
MSHR contents

Cache L2_bank_005:
MSHR contents

In Dram Latency Queue (total = 0): 
DRAM[2]: 16 bks, busW=4 BL=8 CL=12, tRRD=2 tCCD=6, tRCD=12 tRAS=28 tRP=12 tRC=40
n_cmd=818010 n_nop=723724 n_act=11279 n_pre=11263 n_req=36554 n_rd=36876 n_write=34868 bw_util=0.1754
n_activity=388589 dram_eff=0.3693
bk0: 2308a 775576i bk1: 2304a 773354i bk2: 2304a 773915i bk3: 2304a 773817i bk4: 2304a 773118i bk5: 2312a 773046i bk6: 2304a 772225i bk7: 2304a 771902i bk8: 2304a 774319i bk9: 2304a 772423i bk10: 2304a 773450i bk11: 2304a 773912i bk12: 2304a 772736i bk13: 2304a 773060i bk14: 2304a 772937i bk15: 2304a 772559i 
dram_util_bins: 0 0 0 0 0 0 0 0 0 0
dram_eff_bins: 0 0 0 0 0 0 0 0 0 0
mrqq: max=16 avg=2.78721
Memory Partition 3: 
Cache L2_bank_006:
MSHR contents

Cache L2_bank_007:
MSHR contents

In Dram Latency Queue (total = 0): 
DRAM[3]: 16 bks, busW=4 BL=8 CL=12, tRRD=2 tCCD=6, tRCD=12 tRAS=28 tRP=12 tRC=40
n_cmd=818010 n_nop=723891 n_act=11202 n_pre=11186 n_req=36542 n_rd=36874 n_write=34857 bw_util=0.1754
n_activity=385029 dram_eff=0.3726
bk0: 2306a 775542i bk1: 2304a 773920i bk2: 2304a 774143i bk3: 2304a 773091i bk4: 2304a 773660i bk5: 2312a 773824i bk6: 2304a 772366i bk7: 2304a 773629i bk8: 2304a 774344i bk9: 2304a 772781i bk10: 2304a 773225i bk11: 2304a 773163i bk12: 2304a 773071i bk13: 2304a 771950i bk14: 2304a 773647i bk15: 2304a 773277i 
dram_util_bins: 0 0 0 0 0 0 0 0 0 0
dram_eff_bins: 0 0 0 0 0 0 0 0 0 0
mrqq: max=16 avg=2.73725
Memory Partition 4: 
Cache L2_bank_008:
MSHR contents

Cache L2_bank_009:
MSHR contents

In Dram Latency Queue (total = 0): 
DRAM[4]: 16 bks, busW=4 BL=8 CL=12, tRRD=2 tCCD=6, tRCD=12 tRAS=28 tRP=12 tRC=40
n_cmd=818010 n_nop=723838 n_act=11229 n_pre=11213 n_req=36544 n_rd=36872 n_write=34858 bw_util=0.1754
n_activity=387776 dram_eff=0.37
bk0: 2308a 775377i bk1: 2304a 774079i bk2: 2304a 773912i bk3: 2304a 772282i bk4: 2304a 772491i bk5: 2308a 773159i bk6: 2304a 772244i bk7: 2304a 773371i bk8: 2304a 774495i bk9: 2304a 773061i bk10: 2304a 772658i bk11: 2304a 772749i bk12: 2304a 772615i bk13: 2304a 772445i bk14: 2304a 773500i bk15: 2304a 773758i 
dram_util_bins: 0 0 0 0 0 0 0 0 0 0
dram_eff_bins: 0 0 0 0 0 0 0 0 0 0
mrqq: max=16 avg=2.76844
Memory Partition 5: 
Cache L2_bank_010:
MSHR contents

Cache L2_bank_011:
MSHR contents

In Dram Latency Queue (total = 0): 
DRAM[5]: 16 bks, busW=4 BL=8 CL=12, tRRD=2 tCCD=6, tRCD=12 tRAS=28 tRP=12 tRC=40
n_cmd=818010 n_nop=723864 n_act=11216 n_pre=11200 n_req=36543 n_rd=36872 n_write=34858 bw_util=0.1754
n_activity=387303 dram_eff=0.3704
bk0: 2308a 775809i bk1: 2304a 773991i bk2: 2304a 774074i bk3: 2304a 772780i bk4: 2304a 773781i bk5: 2308a 772396i bk6: 2304a 772301i bk7: 2304a 773111i bk8: 2304a 774564i bk9: 2304a 772014i bk10: 2304a 773814i bk11: 2304a 772564i bk12: 2304a 773433i bk13: 2304a 773216i bk14: 2304a 773233i bk15: 2304a 773263i 
dram_util_bins: 0 0 0 0 0 0 0 0 0 0
dram_eff_bins: 0 0 0 0 0 0 0 0 0 0
mrqq: max=16 avg=2.74336

========= L2 cache stats =========
L2_cache_bank[0]: Access = 32680, Miss = 9217, Miss_rate = 0.282, Pending_hits = 921, Reservation_fails = 12578
L2_cache_bank[1]: Access = 32555, Miss = 9217, Miss_rate = 0.283, Pending_hits = 911, Reservation_fails = 10692
L2_cache_bank[2]: Access = 32547, Miss = 9214, Miss_rate = 0.283, Pending_hits = 881, Reservation_fails = 13897
L2_cache_bank[3]: Access = 32529, Miss = 9216, Miss_rate = 0.283, Pending_hits = 888, Reservation_fails = 11912
L2_cache_bank[4]: Access = 32634, Miss = 9218, Miss_rate = 0.282, Pending_hits = 922, Reservation_fails = 12208
L2_cache_bank[5]: Access = 32540, Miss = 9220, Miss_rate = 0.283, Pending_hits = 884, Reservation_fails = 11747
L2_cache_bank[6]: Access = 32805, Miss = 9217, Miss_rate = 0.281, Pending_hits = 893, Reservation_fails = 12201
L2_cache_bank[7]: Access = 32508, Miss = 9220, Miss_rate = 0.284, Pending_hits = 890, Reservation_fails = 12678
L2_cache_bank[8]: Access = 32576, Miss = 9218, Miss_rate = 0.283, Pending_hits = 920, Reservation_fails = 12115
L2_cache_bank[9]: Access = 32539, Miss = 9218, Miss_rate = 0.283, Pending_hits = 897, Reservation_fails = 12043
L2_cache_bank[10]: Access = 32508, Miss = 9218, Miss_rate = 0.284, Pending_hits = 866, Reservation_fails = 11381
L2_cache_bank[11]: Access = 32673, Miss = 9218, Miss_rate = 0.282, Pending_hits = 892, Reservation_fails = 11761
L2_total_cache_accesses = 391094
L2_total_cache_misses = 110611
L2_total_cache_miss_rate = 0.2828
L2_total_cache_pending_hits = 10765
L2_total_cache_reservation_fails = 145213
L2_total_cache_breakdown:
	L2_cache_stats_breakdown[GLOBAL_ACC_R][HIT] = 48375
	L2_cache_stats_breakdown[GLOBAL_ACC_R][HIT_RESERVED] = 4609
	L2_cache_stats_breakdown[GLOBAL_ACC_R][MISS] = 108550
	L2_cache_stats_breakdown[GLOBAL_ACC_R][RESERVATION_FAIL] = 4862
	L2_cache_stats_breakdown[GLOBAL_ACC_W][HIT] = 221213
	L2_cache_stats_breakdown[GLOBAL_ACC_W][HIT_RESERVED] = 6117
	L2_cache_stats_breakdown[GLOBAL_ACC_W][MISS] = 2048
	L2_cache_stats_breakdown[GLOBAL_ACC_W][RESERVATION_FAIL] = 138918
	L2_cache_stats_breakdown[INST_ACC_R][HIT] = 130
	L2_cache_stats_breakdown[INST_ACC_R][HIT_RESERVED] = 39
	L2_cache_stats_breakdown[INST_ACC_R][MISS] = 13
	L2_cache_stats_breakdown[INST_ACC_R][RESERVATION_FAIL] = 1433
L2_cache_data_port_util = 0.153
L2_cache_fill_port_util = 0.059

icnt_total_pkts_mem_to_simt=1037958
icnt_total_pkts_simt_to_mem=964542
LD_mem_lat_dist  0 0 0 0 0 0 0 0 0 0 0 0 0 0 0 0 0 0 0 0 0 0 0 0 0 0 0
ST_mem_lat_dist  0 0 0 0 0 0 0 0 0 0 0 0 0 0 0 0 0 0 0 0 0 0 0 0 0 0 0
----------------------------Interconnect-DETAILS--------------------------------
Class 0:
Packet latency average = 42.6501
	minimum = 6
	maximum = 503
Network latency average = 27.1483
	minimum = 6
	maximum = 451
Slowest packet = 279886
Flit latency average = 22.2137
	minimum = 6
	maximum = 443
Slowest flit = 658553
Fragmentation average = 0.179266
	minimum = 0
	maximum = 218
Injected packet rate average = 0.123672
	minimum = 0.110541 (at node 10)
	maximum = 0.135142 (at node 20)
Accepted packet rate average = 0.123672
	minimum = 0.110541 (at node 10)
	maximum = 0.135142 (at node 20)
Injected flit rate average = 0.330876
	minimum = 0.266163 (at node 10)
	maximum = 0.397387 (at node 20)
Accepted flit rate average= 0.330876
	minimum = 0.324749 (at node 24)
	maximum = 0.341056 (at node 13)
Injected packet length average = 2.67542
Accepted packet length average = 2.67542
Total in-flight flits = 0 (0 measured)
====== Overall Traffic Statistics ======
====== Traffic class 0 ======
Packet latency average = 29.2216 (2 samples)
	minimum = 6 (2 samples)
	maximum = 366.5 (2 samples)
Network latency average = 19.9853 (2 samples)
	minimum = 6 (2 samples)
	maximum = 331.5 (2 samples)
Flit latency average = 17.4695 (2 samples)
	minimum = 6 (2 samples)
	maximum = 327 (2 samples)
Fragmentation average = 0.103592 (2 samples)
	minimum = 0 (2 samples)
	maximum = 166.5 (2 samples)
Injected packet rate average = 0.0731831 (2 samples)
	minimum = 0.0656317 (2 samples)
	maximum = 0.0799232 (2 samples)
Accepted packet rate average = 0.0731831 (2 samples)
	minimum = 0.0656317 (2 samples)
	maximum = 0.0799232 (2 samples)
Injected flit rate average = 0.192107 (2 samples)
	minimum = 0.159371 (2 samples)
	maximum = 0.226456 (2 samples)
Accepted flit rate average = 0.192107 (2 samples)
	minimum = 0.184778 (2 samples)
	maximum = 0.20178 (2 samples)
Injected packet size average = 2.62502 (2 samples)
Accepted packet size average = 2.62502 (2 samples)
Hops average = 1 (2 samples)
----------------------------END-of-Interconnect-DETAILS-------------------------


gpgpu_simulation_time = 0 days, 0 hrs, 9 min, 54 sec (594 sec)
gpgpu_simulation_rate = 555511 (inst/sec)
gpgpu_simulation_rate = 1055 (cycle/sec)
Training done
