

        *** GPGPU-Sim Simulator Version 3.2.2  [build 17315] ***


GPGPU-Sim PTX: simulation mode 0 (can change with PTX_SIM_MODE_FUNC environment variable:
               1=functional simulation only, 0=detailed performance simulator)
GPGPU-Sim: Configuration options:

-network_mode                           1 # Interconnection network mode
-inter_config_file   config_fermi_islip.icnt # Interconnection network config file
-gpgpu_ptx_use_cuobjdump                    1 # Use cuobjdump to extract ptx and sass from binaries
-gpgpu_experimental_lib_support                    0 # Try to extract code from cuda libraries [Broken because of unknown cudaGetExportTable]
-gpgpu_ptx_convert_to_ptxplus                    1 # Convert SASS (native ISA) to ptxplus and run ptxplus
-gpgpu_ptx_force_max_capability                   20 # Force maximum compute capability
-gpgpu_ptx_inst_debug_to_file                    0 # Dump executed instructions' debug information to file
-gpgpu_ptx_inst_debug_file       inst_debug.txt # Executed instructions' debug output file
-gpgpu_ptx_inst_debug_thread_uid                    1 # Thread UID for executed instructions' debug output
-gpgpu_simd_model                       1 # 1 = post-dominator
-gpgpu_shader_core_pipeline              1536:32 # shader core pipeline config, i.e., {<nthread>:<warpsize>}
-gpgpu_tex_cache:l1  4:128:24,L:R:m:N,F:128:4,128:2 # per-shader L1 texture cache  (READ-ONLY) config  {<nsets>:<bsize>:<assoc>,<rep>:<wr>:<alloc>:<wr_alloc>,<mshr>:<N>:<merge>,<mq>:<rf>}
-gpgpu_const_cache:l1 64:64:2,L:R:f:N,A:2:32,4 # per-shader L1 constant memory cache  (READ-ONLY) config  {<nsets>:<bsize>:<assoc>,<rep>:<wr>:<alloc>:<wr_alloc>,<mshr>:<N>:<merge>,<mq>} 
-gpgpu_cache:il1     4:128:4,L:R:f:N,A:2:32,4 # shader L1 instruction cache config  {<nsets>:<bsize>:<assoc>,<rep>:<wr>:<alloc>:<wr_alloc>,<mshr>:<N>:<merge>,<mq>} 
-gpgpu_cache:dl1     32:128:4,L:L:m:N,A:32:8,8 # per-shader L1 data cache config  {<nsets>:<bsize>:<assoc>,<rep>:<wr>:<alloc>:<wr_alloc>,<mshr>:<N>:<merge>,<mq> | none}
-gpgpu_cache:dl1PrefL1                 none # per-shader L1 data cache config  {<nsets>:<bsize>:<assoc>,<rep>:<wr>:<alloc>:<wr_alloc>,<mshr>:<N>:<merge>,<mq> | none}
-gpgpu_cache:dl1PreShared                 none # per-shader L1 data cache config  {<nsets>:<bsize>:<assoc>,<rep>:<wr>:<alloc>:<wr_alloc>,<mshr>:<N>:<merge>,<mq> | none}
-gmem_skip_L1D                          0 # global memory access skip L1D cache (implements -Xptxas -dlcm=cg, default=no skip)
-gpgpu_perfect_mem                      0 # enable perfect memory mode (no cache miss)
-n_regfile_gating_group                    4 # group of lanes that should be read/written together)
-gpgpu_clock_gated_reg_file                    0 # enable clock gated reg file for power calculations
-gpgpu_clock_gated_lanes                    0 # enable clock gated lanes for power calculations
-gpgpu_shader_registers                32768 # Number of registers per shader core. Limits number of concurrent CTAs. (default 8192)
-gpgpu_shader_cta                       8 # Maximum number of concurrent CTAs in shader (default 8)
-gpgpu_n_clusters                      14 # number of processing clusters
-gpgpu_n_cores_per_cluster                    1 # number of simd cores per cluster
-gpgpu_n_cluster_ejection_buffer_size                    8 # number of packets in ejection buffer
-gpgpu_n_ldst_response_buffer_size                    2 # number of response packets in ld/st unit ejection buffer
-gpgpu_shmem_size                   16384 # Size of shared memory per shader core (default 16kB)
-gpgpu_shmem_size                   49152 # Size of shared memory per shader core (default 16kB)
-gpgpu_shmem_size_PrefL1                16384 # Size of shared memory per shader core (default 16kB)
-gpgpu_shmem_size_PrefShared                16384 # Size of shared memory per shader core (default 16kB)
-gpgpu_shmem_num_banks                   32 # Number of banks in the shared memory in each shader core (default 16)
-gpgpu_shmem_limited_broadcast                    0 # Limit shared memory to do one broadcast per cycle (default on)
-gpgpu_shmem_warp_parts                    1 # Number of portions a warp is divided into for shared memory bank conflict check 
-gpgpu_warpdistro_shader                   -1 # Specify which shader core to collect the warp size distribution from
-gpgpu_warp_issue_shader                    0 # Specify which shader core to collect the warp issue distribution from
-gpgpu_local_mem_map                    1 # Mapping from local memory space address to simulated GPU physical address space (default = enabled)
-gpgpu_num_reg_banks                   16 # Number of register banks (default = 8)
-gpgpu_reg_bank_use_warp_id                    0 # Use warp ID in mapping registers to banks (default = off)
-gpgpu_operand_collector_num_units_sp                    6 # number of collector units (default = 4)
-gpgpu_operand_collector_num_units_sfu                    8 # number of collector units (default = 4)
-gpgpu_operand_collector_num_units_mem                    2 # number of collector units (default = 2)
-gpgpu_operand_collector_num_units_gen                    0 # number of collector units (default = 0)
-gpgpu_operand_collector_num_in_ports_sp                    2 # number of collector unit in ports (default = 1)
-gpgpu_operand_collector_num_in_ports_sfu                    1 # number of collector unit in ports (default = 1)
-gpgpu_operand_collector_num_in_ports_mem                    1 # number of collector unit in ports (default = 1)
-gpgpu_operand_collector_num_in_ports_gen                    0 # number of collector unit in ports (default = 0)
-gpgpu_operand_collector_num_out_ports_sp                    2 # number of collector unit in ports (default = 1)
-gpgpu_operand_collector_num_out_ports_sfu                    1 # number of collector unit in ports (default = 1)
-gpgpu_operand_collector_num_out_ports_mem                    1 # number of collector unit in ports (default = 1)
-gpgpu_operand_collector_num_out_ports_gen                    0 # number of collector unit in ports (default = 0)
-gpgpu_coalesce_arch                   13 # Coalescing arch (default = 13, anything else is off for now)
-gpgpu_num_sched_per_core                    2 # Number of warp schedulers per core
-gpgpu_max_insn_issue_per_warp                    1 # Max number of instructions that can be issued per warp in one cycle by scheduler
-gpgpu_simt_core_sim_order                    1 # Select the simulation order of cores in a cluster (0=Fix, 1=Round-Robin)
-gpgpu_pipeline_widths        2,1,1,2,1,1,2 # Pipeline widths ID_OC_SP,ID_OC_SFU,ID_OC_MEM,OC_EX_SP,OC_EX_SFU,OC_EX_MEM,EX_WB
-gpgpu_num_sp_units                     2 # Number of SP units (default=1)
-gpgpu_num_sfu_units                    1 # Number of SF units (default=1)
-gpgpu_num_mem_units                    1 # Number if ldst units (default=1) WARNING: not hooked up to anything
-gpgpu_scheduler                      owf # Scheduler configuration: < lrr | gto | two_level_active > If two_level_active:<num_active_warps>:<inner_prioritization>:<outer_prioritization>For complete list of prioritization values see shader.h enum scheduler_prioritization_typeDefault: gto
-gpgpu_reg_sharing_approach                    4 # Approach used register sharing (default=3)
-gpgpu_reg_share_thersh_hold                  0.1 # Thresh hold factor used for sharing (default=0.5)
-gpgpu_dram_scheduler                    1 # 0 = fifo, 1 = FR-FCFS (defaul)
-gpgpu_dram_partition_queues              8:8:8:8 # i2$:$2d:d2$:$2i
-l2_ideal                               0 # Use a ideal L2 cache that always hit
-gpgpu_cache:dl2     64:128:8,L:B:m:W,A:32:4,4:0,32 # unified banked L2 data cache config  {<nsets>:<bsize>:<assoc>,<rep>:<wr>:<alloc>:<wr_alloc>,<mshr>:<N>:<merge>,<mq>}
-gpgpu_cache:dl2_texture_only                    0 # L2 cache used for texture only
-gpgpu_n_mem                            6 # number of memory modules (e.g. memory controllers) in gpu
-gpgpu_n_sub_partition_per_mchannel                    2 # number of memory subpartition in each memory module
-gpgpu_n_mem_per_ctrlr                    2 # number of memory chips per memory controller
-gpgpu_memlatency_stat                    0 # track and display latency statistics 0x2 enables MC, 0x4 enables queue logs
-gpgpu_frfcfs_dram_sched_queue_size                   16 # 0 = unlimited (default); # entries per chip
-gpgpu_dram_return_queue_size                  114 # 0 = unlimited (default); # entries per chip
-gpgpu_dram_buswidth                    4 # default = 4 bytes (8 bytes per cycle at DDR)
-gpgpu_dram_burst_length                    8 # Burst length of each DRAM request (default = 4 data bus cycle)
-dram_data_command_freq_ratio                    4 # Frequency ratio between DRAM data bus and command bus (default = 2 times, i.e. DDR)
-gpgpu_dram_timing_opt nbk=16:CCD=2:RRD=6:RCD=12:RAS=28:RP=12:RC=40: CL=12:WL=4:CDLR=5:WR=12:nbkgrp=4:CCDL=3:RTPL=2 # DRAM timing parameters = {nbk:tCCD:tRRD:tRCD:tRAS:tRP:tRC:CL:WL:tCDLR:tWR:nbkgrp:tCCDL:tRTPL}
-rop_latency                            2 # ROP queue latency (default 85)
-dram_latency                         100 # DRAM latency (default 30)
-gpgpu_mem_addr_mapping dramid@8;00000000.00000000.00000000.00000000.0000RRRR.RRRRRRRR.BBBCCCCB.CCSSSSSS # mapping memory address to dram model {dramid@<start bit>;<memory address map>}
-gpgpu_mem_addr_test                    0 # run sweep test to check address mapping for aliased address
-gpgpu_mem_address_mask                    1 # 0 = old addressing mask, 1 = new addressing mask, 2 = new add. mask + flipped bank sel and chip sel bits
-gpuwattch_xml_file         gpuwattch.xml # GPUWattch XML file
-power_simulation_enabled                    0 # Turn on power simulator (1=On, 0=Off)
-power_per_cycle_dump                    0 # Dump detailed power output each cycle
-power_trace_enabled                    0 # produce a file for the power trace (1=On, 0=Off)
-power_trace_zlevel                     6 # Compression level of the power trace output log (0=no comp, 9=highest)
-steady_power_levels_enabled                    0 # produce a file for the steady power levels (1=On, 0=Off)
-steady_state_definition                  8:4 # allowed deviation:number of samples
-gpgpu_max_cycle                        0 # terminates gpu simulation early (0 = no limit)
-gpgpu_max_insn                         0 # terminates gpu simulation early (0 = no limit)
-gpgpu_max_cta                          0 # terminates gpu simulation early (0 = no limit)
-gpgpu_runtime_stat             5000000:0 # display runtime statistics such as dram utilization {<freq>:<flag>}
-liveness_message_freq                    1 # Minimum number of seconds between simulation liveness messages (0 = always print)
-gpgpu_flush_l1_cache                    0 # Flush L1 cache at the end of each kernel call
-gpgpu_flush_l2_cache                    0 # Flush L2 cache at the end of each kernel call
-gpgpu_deadlock_detect                    1 # Stop the simulation at deadlock (1=on (default), 0=off)
-gpgpu_ptx_instruction_classification                    0 # if enabled will classify ptx instruction types per kernel (Max 255 kernels now)
-gpgpu_ptx_sim_mode                     0 # Select between Performance (default) or Functional simulation (1)
-gpgpu_clock_domains 575.0:575.0:575.0:750.0 # Clock Domain Frequencies in MhZ {<Core Clock>:<ICNT Clock>:<L2 Clock>:<DRAM Clock>}
-gpgpu_max_concurrent_kernel                    8 # maximum kernels that can run concurrently on GPU
-gpgpu_cflog_interval                    0 # Interval between each snapshot in control flow logger
-visualizer_enabled                     0 # Turn on visualizer output (1=On, 0=Off)
-visualizer_outputfile                 NULL # Specifies the output log file for visualizer
-visualizer_zlevel                      6 # Compression level of the visualizer output log (0=no comp, 9=highest)
-trace_enabled                          0 # Turn on traces
-trace_components                    none # comma seperated list of traces to enable. Complete list found in trace_streams.tup. Default none
-trace_sampling_core                    0 # The core which is printed using CORE_DPRINTF. Default 0
-trace_sampling_memory_partition                   -1 # The memory partition which is printed using MEMPART_DPRINTF. Default -1 (i.e. all)
-enable_ptx_file_line_stats                    0 # Turn on PTX source line statistic profiling. (1 = On)
-ptx_line_stats_filename gpgpu_inst_stats.txt # Output file for PTX source line statistics.
-save_embedded_ptx                      0 # saves ptx files embedded in binary as <n>.ptx
-keep                                   0 # keep intermediate files created by GPGPU-Sim when interfacing with external programs
-gpgpu_ptx_save_converted_ptxplus                    1 # Saved converted ptxplus to a file
-ptx_opcode_latency_int         4,13,4,5,145 # Opcode latencies for integers <ADD,MAX,MUL,MAD,DIV>Default 1,1,19,25,145
-ptx_opcode_latency_fp          4,13,4,5,39 # Opcode latencies for single precision floating points <ADD,MAX,MUL,MAD,DIV>Default 1,1,1,1,30
-ptx_opcode_latency_dp         8,19,8,8,330 # Opcode latencies for double precision floating points <ADD,MAX,MUL,MAD,DIV>Default 8,8,8,8,335
-ptx_opcode_initiation_int            1,2,2,1,8 # Opcode initiation intervals for integers <ADD,MAX,MUL,MAD,DIV>Default 1,1,4,4,32
-ptx_opcode_initiation_fp            1,2,1,1,4 # Opcode initiation intervals for single precision floating points <ADD,MAX,MUL,MAD,DIV>Default 1,1,1,1,5
-ptx_opcode_initiation_dp         8,16,8,8,130 # Opcode initiation intervals for double precision floating points <ADD,MAX,MUL,MAD,DIV>Default 8,8,8,8,130
DRAM Timing Options:
nbk                                    16 # number of banks
CCD                                     2 # column to column delay
RRD                                     6 # minimal delay between activation of rows in different banks
RCD                                    12 # row to column delay
RAS                                    28 # time needed to activate row
RP                                     12 # time needed to precharge (deactivate) row
RC                                     40 # row cycle time
CDLR                                    5 # switching from write to read (changes tWTR)
WR                                     12 # last data-in to row precharge
CL                                     12 # CAS latency
WL                                      4 # Write latency
nbkgrp                                  4 # number of bank groups
CCDL                                    3 # column to column delay between accesses to different bank groups
RTPL                                    2 # read to precharge delay between accesses to different bank groups
Total number of memory sub partition = 12
addr_dec_mask[CHIP]  = 0000000000000000 	high:64 low:0
addr_dec_mask[BK]    = 000000000000e100 	high:16 low:8
addr_dec_mask[ROW]   = 000000000fff0000 	high:28 low:16
addr_dec_mask[COL]   = 0000000000001eff 	high:13 low:0
addr_dec_mask[BURST] = 000000000000003f 	high:6 low:0
sub_partition_id_mask = 0000000000000100
GPGPU-Sim uArch: clock freqs: 575000000.000000:575000000.000000:575000000.000000:750000000.000000
GPGPU-Sim uArch: clock periods: 0.00000000173913043478:0.00000000173913043478:0.00000000173913043478:0.00000000133333333333
*** Initializing Memory Statistics ***
GPGPU-Sim uArch: interconnect node map (shaderID+MemID to icntID)
GPGPU-Sim uArch: Memory nodes ID start from index: 14
GPGPU-Sim uArch:    0   1   2   3   4
GPGPU-Sim uArch:    5   6   7   8   9
GPGPU-Sim uArch:   10  11  12  13  14
GPGPU-Sim uArch:   15  16  17  18  19
GPGPU-Sim uArch:   20  21  22  23  24
GPGPU-Sim uArch:   25
GPGPU-Sim uArch: interconnect node reverse map (icntID to shaderID+MemID)
GPGPU-Sim uArch: Memory nodes start from ID: 14
GPGPU-Sim uArch:    0   1   2   3   4
GPGPU-Sim uArch:    5   6   7   8   9
GPGPU-Sim uArch:   10  11  12  13  14
GPGPU-Sim uArch:   15  16  17  18  19
GPGPU-Sim uArch:   20  21  22  23  24
GPGPU-Sim uArch:   25
d6c77f0bbd11a2a8055098b2a90a2cbf  /home/vishwesh/Desktop/Register_Sharing_Pbm/rodinia_2.4/cuda/backprop/backprop
GPGPU-Sim uArch: performance model initialization complete.
GPGPU-Sim PTX: __cudaRegisterFatBinary, fat_cubin_handle = 1, filename=backprop_cuda.cu
self exe links to: /home/vishwesh/Desktop/Register_Sharing_Pbm/rodinia_2.4/cuda/backprop/backprop
Running md5sum using "md5sum /home/vishwesh/Desktop/Register_Sharing_Pbm/rodinia_2.4/cuda/backprop/backprop "
Running cuobjdump using "$CUDA_INSTALL_PATH/bin/cuobjdump -ptx -elf -sass /home/vishwesh/Desktop/Register_Sharing_Pbm/rodinia_2.4/cuda/backprop/backprop > _cuobjdump_complete_output_gnzuLx"
Parsing file _cuobjdump_complete_output_gnzuLx
######### cuobjdump parser ########
## Adding new section ELF
Adding arch: sm_10
Adding identifier: backprop_cuda.cu
## Adding new section PTX
Adding ptx filename: _cuobjdump_1.ptx
Adding arch: sm_10
Adding identifier: backprop_cuda.cu
Done parsing!!!
GPGPU-Sim: WARNING: Capability >= 20 are not supported in PTXPlus
	Setting forced_max_capability to 19
GPGPU-Sim PTX: __cudaRegisterFunction _Z24bpnn_adjust_weights_cudaPfiS_iS_S_ : hostFun 0x0x402120, fat_cubin_handle = 1
GPGPU-Sim PTX: converting EMBEDDED .ptx file to ptxplus 
GPGPU-Sim PTX: DONE converting EMBEDDED .ptx file to ptxplus 
GPGPU-Sim PTX: allocating constant region for "constant1_Z22bpnn_layerforward_CUDAPfS_S_S_ii" from 0x100 to 0x10c (global memory space) 1
GPGPU-Sim PTX: allocating constant region for "constant1_Z24bpnn_adjust_weights_cudaPfiS_iS_S_" from 0x110 to 0x118 (global memory space) 2
GPGPU-Sim PTX: instruction assembly for function '_Z24bpnn_adjust_weights_cudaPfiS_iS_S_'...   done.
GPGPU-Sim PTX: finding reconvergence points for '_Z24bpnn_adjust_weights_cudaPfiS_iS_S_'...
GPGPU-Sim PTX: Warning detected predicated return/exit.
GPGPU-Sim PTX: Finding dominators for '_Z24bpnn_adjust_weights_cudaPfiS_iS_S_'...
GPGPU-Sim PTX: Finding immediate dominators for '_Z24bpnn_adjust_weights_cudaPfiS_iS_S_'...
GPGPU-Sim PTX: Finding postdominators for '_Z24bpnn_adjust_weights_cudaPfiS_iS_S_'...
GPGPU-Sim PTX: Finding immediate postdominators for '_Z24bpnn_adjust_weights_cudaPfiS_iS_S_'...
GPGPU-Sim PTX: pre-decoding instructions for '_Z24bpnn_adjust_weights_cudaPfiS_iS_S_'...
GPGPU-Sim PTX: reconvergence points for _Z24bpnn_adjust_weights_cudaPfiS_iS_S_...
GPGPU-Sim PTX: ... end of reconvergence points for _Z24bpnn_adjust_weights_cudaPfiS_iS_S_
GPGPU-Sim PTX: ... done pre-decoding instructions for '_Z24bpnn_adjust_weights_cudaPfiS_iS_S_'.
GPGPU-Sim PTX: PTX uses two scalar type intruction with literal operand.
GPGPU-Sim PTX: instruction assembly for function '_Z22bpnn_layerforward_CUDAPfS_S_S_ii'...   done.
GPGPU-Sim PTX: finding reconvergence points for '_Z22bpnn_layerforward_CUDAPfS_S_S_ii'...
GPGPU-Sim PTX: Warning detected predicated return/exit.
GPGPU-Sim PTX: Finding dominators for '_Z22bpnn_layerforward_CUDAPfS_S_S_ii'...
GPGPU-Sim PTX: Finding immediate dominators for '_Z22bpnn_layerforward_CUDAPfS_S_S_ii'...
GPGPU-Sim PTX: Finding postdominators for '_Z22bpnn_layerforward_CUDAPfS_S_S_ii'...
GPGPU-Sim PTX: Finding immediate postdominators for '_Z22bpnn_layerforward_CUDAPfS_S_S_ii'...
GPGPU-Sim PTX: pre-decoding instructions for '_Z22bpnn_layerforward_CUDAPfS_S_S_ii'...
GPGPU-Sim PTX: reconvergence points for _Z22bpnn_layerforward_CUDAPfS_S_S_ii...
GPGPU-Sim PTX:  1 (potential) branch divergence @  PC=0x290 (_1.ptx:157) @$p1.neu bra l0x00000078;
GPGPU-Sim PTX:    immediate post dominator      @  PC=0x2d8 (_1.ptx:166) l0x00000078: nop;
GPGPU-Sim PTX:  2 (potential) branch divergence @  PC=0x400 (_1.ptx:207) @$p1.ne bra l0x00000200;
GPGPU-Sim PTX:    immediate post dominator      @  PC=0x460 (_1.ptx:219) l0x00000200: nop;
GPGPU-Sim PTX:  3 (potential) branch divergence @  PC=0x488 (_1.ptx:224) @$p1.ne bra l0x00000160;
GPGPU-Sim PTX:    immediate post dominator      @  PC=0x490 (_1.ptx:225) add.u32 $r3, $r6, 0x00000008;
GPGPU-Sim PTX: ... end of reconvergence points for _Z22bpnn_layerforward_CUDAPfS_S_S_ii
GPGPU-Sim PTX: ... done pre-decoding instructions for '_Z22bpnn_layerforward_CUDAPfS_S_S_ii'.
GPGPU-Sim PTX: finished parsing EMBEDDED .ptx file _1.ptx
Adding _cuobjdump_1.ptx with cubin handle 1
GPGPU-Sim PTX: extracting embedded .ptx to temporary file "_ptx_ajPcXU"
Running: cat _ptx_ajPcXU | sed 's/.version 1.5/.version 1.4/' | sed 's/, texmode_independent//' | sed 's/\(\.extern \.const\[1\] .b8 \w\+\)\[\]/\1\[1\]/' | sed 's/const\[.\]/const\[0\]/g' > _ptx2_5J4V8h
GPGPU-Sim PTX: generating ptxinfo using "$CUDA_INSTALL_PATH/bin/ptxas --gpu-name=sm_20 -v _ptx2_5J4V8h --output-file  /dev/null 2> _ptx_ajPcXUinfo"
GPGPU-Sim PTX: Kernel '_Z24bpnn_adjust_weights_cudaPfiS_iS_S_' : regs=22, lmem=0, smem=0, cmem=80
GPGPU-Sim PTX: Kernel '_Z22bpnn_layerforward_CUDAPfS_S_S_ii' : regs=11, lmem=0, smem=1088, cmem=72
GPGPU-Sim PTX: removing ptxinfo using "rm -f _ptx_ajPcXU _ptx2_5J4V8h _ptx_ajPcXUinfo"
GPGPU-Sim PTX: loading globals with explicit initializers... 
GPGPU-Sim PTX: finished loading globals (0 bytes total).
GPGPU-Sim PTX: loading constants with explicit initializers...  done.
GPGPU-Sim PTX: __cudaRegisterFunction _Z22bpnn_layerforward_CUDAPfS_S_S_ii : hostFun 0x0x402210, fat_cubin_handle = 1
Random number generator seed: 7
Input layer size : 65536
Starting training kernel
Performing GPU computation

GPGPU-Sim PTX: cudaLaunch for 0x0x402210 (mode=performance simulation) on stream 0
GPGPU-Sim PTX: pushing kernel '_Z22bpnn_layerforward_CUDAPfS_S_S_ii' to stream 0, gridDim= (1,4096,1) blockDim = (16,16,1) 
kernel '_Z22bpnn_layerforward_CUDAPfS_S_S_ii' transfer to GPU hardware scheduler
GPGPU-Sim uArch: Shader 1 bind to kernel 1 '_Z22bpnn_layerforward_CUDAPfS_S_S_ii'
GPGPU-Sim uArch: CTA/core = 6, limited by: threads
Shared mode is : 0
GPGPU-Sim uArch: core:  1, cta: 0 initialized @(1,0)
GPGPU-Sim uArch: Shader 2 bind to kernel 1 '_Z22bpnn_layerforward_CUDAPfS_S_S_ii'
Shared mode is : 0
GPGPU-Sim uArch: core:  2, cta: 0 initialized @(1,0)
GPGPU-Sim uArch: Shader 3 bind to kernel 1 '_Z22bpnn_layerforward_CUDAPfS_S_S_ii'
Shared mode is : 0
GPGPU-Sim uArch: core:  3, cta: 0 initialized @(1,0)
GPGPU-Sim uArch: Shader 4 bind to kernel 1 '_Z22bpnn_layerforward_CUDAPfS_S_S_ii'
Shared mode is : 0
GPGPU-Sim uArch: core:  4, cta: 0 initialized @(1,0)
GPGPU-Sim uArch: Shader 5 bind to kernel 1 '_Z22bpnn_layerforward_CUDAPfS_S_S_ii'
Shared mode is : 0
GPGPU-Sim uArch: core:  5, cta: 0 initialized @(1,0)
GPGPU-Sim uArch: Shader 6 bind to kernel 1 '_Z22bpnn_layerforward_CUDAPfS_S_S_ii'
Shared mode is : 0
GPGPU-Sim uArch: core:  6, cta: 0 initialized @(1,0)
GPGPU-Sim uArch: Shader 7 bind to kernel 1 '_Z22bpnn_layerforward_CUDAPfS_S_S_ii'
Shared mode is : 0
GPGPU-Sim uArch: core:  7, cta: 0 initialized @(1,0)
GPGPU-Sim uArch: Shader 8 bind to kernel 1 '_Z22bpnn_layerforward_CUDAPfS_S_S_ii'
Shared mode is : 0
GPGPU-Sim uArch: core:  8, cta: 0 initialized @(1,0)
GPGPU-Sim uArch: Shader 9 bind to kernel 1 '_Z22bpnn_layerforward_CUDAPfS_S_S_ii'
Shared mode is : 0
GPGPU-Sim uArch: core:  9, cta: 0 initialized @(1,0)
GPGPU-Sim uArch: Shader 10 bind to kernel 1 '_Z22bpnn_layerforward_CUDAPfS_S_S_ii'
Shared mode is : 0
GPGPU-Sim uArch: core: 10, cta: 0 initialized @(1,0)
GPGPU-Sim uArch: Shader 11 bind to kernel 1 '_Z22bpnn_layerforward_CUDAPfS_S_S_ii'
Shared mode is : 0
GPGPU-Sim uArch: core: 11, cta: 0 initialized @(1,0)
GPGPU-Sim uArch: Shader 12 bind to kernel 1 '_Z22bpnn_layerforward_CUDAPfS_S_S_ii'
Shared mode is : 0
GPGPU-Sim uArch: core: 12, cta: 0 initialized @(1,0)
GPGPU-Sim uArch: Shader 13 bind to kernel 1 '_Z22bpnn_layerforward_CUDAPfS_S_S_ii'
Shared mode is : 0
GPGPU-Sim uArch: core: 13, cta: 0 initialized @(1,0)
GPGPU-Sim uArch: Shader 0 bind to kernel 1 '_Z22bpnn_layerforward_CUDAPfS_S_S_ii'
Shared mode is : 0
GPGPU-Sim uArch: core:  0, cta: 0 initialized @(1,0)
Shared mode is : 0
GPGPU-Sim uArch: core:  1, cta: 1 initialized @(2,0)
Shared mode is : 0
GPGPU-Sim uArch: core:  2, cta: 1 initialized @(2,0)
Shared mode is : 0
GPGPU-Sim uArch: core:  3, cta: 1 initialized @(2,0)
Shared mode is : 0
GPGPU-Sim uArch: core:  4, cta: 1 initialized @(2,0)
Shared mode is : 0
GPGPU-Sim uArch: core:  5, cta: 1 initialized @(2,0)
Shared mode is : 0
GPGPU-Sim uArch: core:  6, cta: 1 initialized @(2,0)
Shared mode is : 0
GPGPU-Sim uArch: core:  7, cta: 1 initialized @(2,0)
Shared mode is : 0
GPGPU-Sim uArch: core:  8, cta: 1 initialized @(2,0)
Shared mode is : 0
GPGPU-Sim uArch: core:  9, cta: 1 initialized @(2,0)
Shared mode is : 0
GPGPU-Sim uArch: core: 10, cta: 1 initialized @(2,0)
Shared mode is : 0
GPGPU-Sim uArch: core: 11, cta: 1 initialized @(2,0)
Shared mode is : 0
GPGPU-Sim uArch: core: 12, cta: 1 initialized @(2,0)
Shared mode is : 0
GPGPU-Sim uArch: core: 13, cta: 1 initialized @(2,0)
Shared mode is : 0
GPGPU-Sim uArch: core:  0, cta: 1 initialized @(2,0)
Shared mode is : 0
GPGPU-Sim uArch: core:  1, cta: 2 initialized @(3,0)
Shared mode is : 0
GPGPU-Sim uArch: core:  2, cta: 2 initialized @(3,0)
Shared mode is : 0
GPGPU-Sim uArch: core:  3, cta: 2 initialized @(3,0)
Shared mode is : 0
GPGPU-Sim uArch: core:  4, cta: 2 initialized @(3,0)
Shared mode is : 0
GPGPU-Sim uArch: core:  5, cta: 2 initialized @(3,0)
Shared mode is : 0
GPGPU-Sim uArch: core:  6, cta: 2 initialized @(3,0)
Shared mode is : 0
GPGPU-Sim uArch: core:  7, cta: 2 initialized @(3,0)
Shared mode is : 0
GPGPU-Sim uArch: core:  8, cta: 2 initialized @(3,0)
Shared mode is : 0
GPGPU-Sim uArch: core:  9, cta: 2 initialized @(3,0)
Shared mode is : 0
GPGPU-Sim uArch: core: 10, cta: 2 initialized @(3,0)
Shared mode is : 0
GPGPU-Sim uArch: core: 11, cta: 2 initialized @(3,0)
Shared mode is : 0
GPGPU-Sim uArch: core: 12, cta: 2 initialized @(3,0)
Shared mode is : 0
GPGPU-Sim uArch: core: 13, cta: 2 initialized @(3,0)
Shared mode is : 0
GPGPU-Sim uArch: core:  0, cta: 2 initialized @(3,0)
Shared mode is : 0
GPGPU-Sim uArch: core:  1, cta: 3 initialized @(4,0)
Shared mode is : 0
GPGPU-Sim uArch: core:  2, cta: 3 initialized @(4,0)
Shared mode is : 0
GPGPU-Sim uArch: core:  3, cta: 3 initialized @(4,0)
Shared mode is : 0
GPGPU-Sim uArch: core:  4, cta: 3 initialized @(4,0)
Shared mode is : 0
GPGPU-Sim uArch: core:  5, cta: 3 initialized @(4,0)
Shared mode is : 0
GPGPU-Sim uArch: core:  6, cta: 3 initialized @(4,0)
Shared mode is : 0
GPGPU-Sim uArch: core:  7, cta: 3 initialized @(4,0)
Shared mode is : 0
GPGPU-Sim uArch: core:  8, cta: 3 initialized @(4,0)
Shared mode is : 0
GPGPU-Sim uArch: core:  9, cta: 3 initialized @(4,0)
Shared mode is : 0
GPGPU-Sim uArch: core: 10, cta: 3 initialized @(4,0)
Shared mode is : 0
GPGPU-Sim uArch: core: 11, cta: 3 initialized @(4,0)
Shared mode is : 0
GPGPU-Sim uArch: core: 12, cta: 3 initialized @(4,0)
Shared mode is : 0
GPGPU-Sim uArch: core: 13, cta: 3 initialized @(4,0)
Shared mode is : 0
GPGPU-Sim uArch: core:  0, cta: 3 initialized @(4,0)
Shared mode is : 0
GPGPU-Sim uArch: core:  1, cta: 4 initialized @(5,0)
Shared mode is : 0
GPGPU-Sim uArch: core:  2, cta: 4 initialized @(5,0)
Shared mode is : 0
GPGPU-Sim uArch: core:  3, cta: 4 initialized @(5,0)
Shared mode is : 0
GPGPU-Sim uArch: core:  4, cta: 4 initialized @(5,0)
Shared mode is : 0
GPGPU-Sim uArch: core:  5, cta: 4 initialized @(5,0)
Shared mode is : 0
GPGPU-Sim uArch: core:  6, cta: 4 initialized @(5,0)
Shared mode is : 0
GPGPU-Sim uArch: core:  7, cta: 4 initialized @(5,0)
Shared mode is : 0
GPGPU-Sim uArch: core:  8, cta: 4 initialized @(5,0)
Shared mode is : 0
GPGPU-Sim uArch: core:  9, cta: 4 initialized @(5,0)
Shared mode is : 0
GPGPU-Sim uArch: core: 10, cta: 4 initialized @(5,0)
Shared mode is : 0
GPGPU-Sim uArch: core: 11, cta: 4 initialized @(5,0)
Shared mode is : 0
GPGPU-Sim uArch: core: 12, cta: 4 initialized @(5,0)
Shared mode is : 0
GPGPU-Sim uArch: core: 13, cta: 4 initialized @(5,0)
Shared mode is : 0
GPGPU-Sim uArch: core:  0, cta: 4 initialized @(5,0)
Shared mode is : 0
GPGPU-Sim uArch: core:  1, cta: 5 initialized @(6,0)
Shared mode is : 0
GPGPU-Sim uArch: core:  2, cta: 5 initialized @(6,0)
Shared mode is : 0
GPGPU-Sim uArch: core:  3, cta: 5 initialized @(6,0)
Shared mode is : 0
GPGPU-Sim uArch: core:  4, cta: 5 initialized @(6,0)
Shared mode is : 0
GPGPU-Sim uArch: core:  5, cta: 5 initialized @(6,0)
Shared mode is : 0
GPGPU-Sim uArch: core:  6, cta: 5 initialized @(6,0)
Shared mode is : 0
GPGPU-Sim uArch: core:  7, cta: 5 initialized @(6,0)
Shared mode is : 0
GPGPU-Sim uArch: core:  8, cta: 5 initialized @(6,0)
Shared mode is : 0
GPGPU-Sim uArch: core:  9, cta: 5 initialized @(6,0)
Shared mode is : 0
GPGPU-Sim uArch: core: 10, cta: 5 initialized @(6,0)
Shared mode is : 0
GPGPU-Sim uArch: core: 11, cta: 5 initialized @(6,0)
Shared mode is : 0
GPGPU-Sim uArch: core: 12, cta: 5 initialized @(6,0)
Shared mode is : 0
GPGPU-Sim uArch: core: 13, cta: 5 initialized @(6,0)
Shared mode is : 0
GPGPU-Sim uArch: core:  0, cta: 5 initialized @(6,0)
GPGPU-Sim PTX: WARNING (_1.ptx:156) ** reading undefined register '$r124' (cuid:0). Setting to 0X00000000. This is okay if you are simulating the native ISA
GPGPU-Sim uArch: Shader 5 finished CTA #0 (6362,0), 5 CTAs running
Shared mode is : 0
GPGPU-Sim uArch: core:  5, cta: 0 initialized @(6363,0)
GPGPU-Sim uArch: Shader 6 finished CTA #0 (6408,0), 5 CTAs running
Shared mode is : 0
GPGPU-Sim uArch: core:  6, cta: 0 initialized @(6409,0)
GPGPU-Sim uArch: Shader 12 finished CTA #0 (6524,0), 5 CTAs running
Shared mode is : 0
GPGPU-Sim uArch: core: 12, cta: 0 initialized @(6525,0)
GPGPU-Sim uArch: Shader 0 finished CTA #0 (6529,0), 5 CTAs running
Shared mode is : 0
GPGPU-Sim uArch: core:  0, cta: 0 initialized @(6530,0)
GPGPU-Sim uArch: Shader 13 finished CTA #0 (6541,0), 5 CTAs running
Shared mode is : 0
GPGPU-Sim uArch: core: 13, cta: 0 initialized @(6542,0)
GPGPU-Sim uArch: Shader 7 finished CTA #0 (6559,0), 5 CTAs running
Shared mode is : 0
GPGPU-Sim uArch: core:  7, cta: 0 initialized @(6560,0)
GPGPU-Sim uArch: Shader 3 finished CTA #0 (6562,0), 5 CTAs running
Shared mode is : 0
GPGPU-Sim uArch: core:  3, cta: 0 initialized @(6563,0)
GPGPU-Sim uArch: Shader 8 finished CTA #0 (6567,0), 5 CTAs running
Shared mode is : 0
GPGPU-Sim uArch: core:  8, cta: 0 initialized @(6568,0)
GPGPU-Sim uArch: Shader 4 finished CTA #0 (6575,0), 5 CTAs running
Shared mode is : 0
GPGPU-Sim uArch: core:  4, cta: 0 initialized @(6576,0)
GPGPU-Sim uArch: Shader 2 finished CTA #0 (6623,0), 5 CTAs running
Shared mode is : 0
GPGPU-Sim uArch: core:  2, cta: 0 initialized @(6624,0)
GPGPU-Sim uArch: Shader 5 finished CTA #1 (6627,0), 5 CTAs running
Shared mode is : 0
GPGPU-Sim uArch: core:  5, cta: 1 initialized @(6628,0)
GPGPU-Sim uArch: Shader 10 finished CTA #0 (6666,0), 5 CTAs running
Shared mode is : 0
GPGPU-Sim uArch: core: 10, cta: 0 initialized @(6667,0)
GPGPU-Sim uArch: Shader 11 finished CTA #0 (6681,0), 5 CTAs running
Shared mode is : 0
GPGPU-Sim uArch: core: 11, cta: 0 initialized @(6682,0)
GPGPU-Sim uArch: Shader 1 finished CTA #0 (6692,0), 5 CTAs running
Shared mode is : 0
GPGPU-Sim uArch: core:  1, cta: 0 initialized @(6693,0)
GPGPU-Sim uArch: Shader 9 finished CTA #0 (6694,0), 5 CTAs running
Shared mode is : 0
GPGPU-Sim uArch: core:  9, cta: 0 initialized @(6695,0)
GPGPU-Sim uArch: Shader 2 finished CTA #1 (6741,0), 5 CTAs running
Shared mode is : 0
GPGPU-Sim uArch: core:  2, cta: 1 initialized @(6742,0)
GPGPU-Sim uArch: Shader 8 finished CTA #1 (6755,0), 5 CTAs running
Shared mode is : 0
GPGPU-Sim uArch: core:  8, cta: 1 initialized @(6756,0)
GPGPU-Sim uArch: Shader 4 finished CTA #1 (6768,0), 5 CTAs running
Shared mode is : 0
GPGPU-Sim uArch: core:  4, cta: 1 initialized @(6769,0)
GPGPU-Sim uArch: Shader 7 finished CTA #1 (6774,0), 5 CTAs running
Shared mode is : 0
GPGPU-Sim uArch: core:  7, cta: 1 initialized @(6775,0)
GPGPU-Sim uArch: Shader 1 finished CTA #1 (6796,0), 5 CTAs running
Shared mode is : 0
GPGPU-Sim uArch: core:  1, cta: 1 initialized @(6797,0)
GPGPU-Sim uArch: Shader 6 finished CTA #1 (6800,0), 5 CTAs running
Shared mode is : 0
GPGPU-Sim uArch: core:  6, cta: 1 initialized @(6801,0)
GPGPU-Sim uArch: Shader 0 finished CTA #1 (6801,0), 5 CTAs running
Shared mode is : 0
GPGPU-Sim uArch: core:  0, cta: 1 initialized @(6802,0)
GPGPU-Sim uArch: Shader 3 finished CTA #1 (6802,0), 5 CTAs running
Shared mode is : 0
GPGPU-Sim uArch: core:  3, cta: 1 initialized @(6803,0)
GPGPU-Sim uArch: Shader 13 finished CTA #1 (6819,0), 5 CTAs running
Shared mode is : 0
GPGPU-Sim uArch: core: 13, cta: 1 initialized @(6820,0)
GPGPU-Sim uArch: Shader 10 finished CTA #1 (6889,0), 5 CTAs running
Shared mode is : 0
GPGPU-Sim uArch: core: 10, cta: 1 initialized @(6890,0)
GPGPU-Sim uArch: Shader 9 finished CTA #1 (6960,0), 5 CTAs running
Shared mode is : 0
GPGPU-Sim uArch: core:  9, cta: 1 initialized @(6961,0)
GPGPU-Sim uArch: Shader 12 finished CTA #1 (6988,0), 5 CTAs running
Shared mode is : 0
GPGPU-Sim uArch: core: 12, cta: 1 initialized @(6989,0)
GPGPU-Sim uArch: Shader 11 finished CTA #1 (7013,0), 5 CTAs running
Shared mode is : 0
GPGPU-Sim uArch: core: 11, cta: 1 initialized @(7014,0)
GPGPU-Sim uArch: Shader 5 finished CTA #2 (7293,0), 5 CTAs running
Shared mode is : 0
GPGPU-Sim uArch: core:  5, cta: 2 initialized @(7294,0)
GPGPU-Sim uArch: Shader 13 finished CTA #2 (7336,0), 5 CTAs running
Shared mode is : 0
GPGPU-Sim uArch: core: 13, cta: 2 initialized @(7337,0)
GPGPU-Sim uArch: Shader 1 finished CTA #2 (7401,0), 5 CTAs running
Shared mode is : 0
GPGPU-Sim uArch: core:  1, cta: 2 initialized @(7402,0)
GPGPU-Sim uArch: Shader 6 finished CTA #2 (7427,0), 5 CTAs running
Shared mode is : 0
GPGPU-Sim uArch: core:  6, cta: 2 initialized @(7428,0)
GPGPU-Sim uArch: Shader 2 finished CTA #2 (7512,0), 5 CTAs running
Shared mode is : 0
GPGPU-Sim uArch: core:  2, cta: 2 initialized @(7513,0)
GPGPU-Sim uArch: Shader 7 finished CTA #2 (7607,0), 5 CTAs running
Shared mode is : 0
GPGPU-Sim uArch: core:  7, cta: 2 initialized @(7608,0)
GPGPU-Sim uArch: Shader 12 finished CTA #2 (7651,0), 5 CTAs running
Shared mode is : 0
GPGPU-Sim uArch: core: 12, cta: 2 initialized @(7652,0)
GPGPU-Sim uArch: Shader 8 finished CTA #2 (7677,0), 5 CTAs running
Shared mode is : 0
GPGPU-Sim uArch: core:  8, cta: 2 initialized @(7678,0)
GPGPU-Sim uArch: Shader 0 finished CTA #2 (7678,0), 5 CTAs running
Shared mode is : 0
GPGPU-Sim uArch: core:  0, cta: 2 initialized @(7679,0)
GPGPU-Sim uArch: Shader 4 finished CTA #2 (7744,0), 5 CTAs running
Shared mode is : 0
GPGPU-Sim uArch: core:  4, cta: 2 initialized @(7745,0)
GPGPU-Sim uArch: Shader 3 finished CTA #2 (7754,0), 5 CTAs running
Shared mode is : 0
GPGPU-Sim uArch: core:  3, cta: 2 initialized @(7755,0)
GPGPU-Sim uArch: Shader 11 finished CTA #2 (7778,0), 5 CTAs running
Shared mode is : 0
GPGPU-Sim uArch: core: 11, cta: 2 initialized @(7779,0)
GPGPU-Sim uArch: Shader 9 finished CTA #2 (7784,0), 5 CTAs running
Shared mode is : 0
GPGPU-Sim uArch: core:  9, cta: 2 initialized @(7785,0)
GPGPU-Sim uArch: Shader 10 finished CTA #2 (7801,0), 5 CTAs running
Shared mode is : 0
GPGPU-Sim uArch: core: 10, cta: 2 initialized @(7802,0)
GPGPU-Sim uArch: Shader 12 finished CTA #3 (8240,0), 5 CTAs running
Shared mode is : 0
GPGPU-Sim uArch: core: 12, cta: 3 initialized @(8241,0)
GPGPU-Sim uArch: Shader 11 finished CTA #3 (8247,0), 5 CTAs running
Shared mode is : 0
GPGPU-Sim uArch: core: 11, cta: 3 initialized @(8248,0)
GPGPU-Sim uArch: Shader 1 finished CTA #3 (8335,0), 5 CTAs running
Shared mode is : 0
GPGPU-Sim uArch: core:  1, cta: 3 initialized @(8336,0)
GPGPU-Sim uArch: Shader 13 finished CTA #3 (8371,0), 5 CTAs running
Shared mode is : 0
GPGPU-Sim uArch: core: 13, cta: 3 initialized @(8372,0)
GPGPU-Sim uArch: Shader 5 finished CTA #3 (8406,0), 5 CTAs running
Shared mode is : 0
GPGPU-Sim uArch: core:  5, cta: 3 initialized @(8407,0)
GPGPU-Sim uArch: Shader 6 finished CTA #3 (8445,0), 5 CTAs running
Shared mode is : 0
GPGPU-Sim uArch: core:  6, cta: 3 initialized @(8446,0)
GPGPU-Sim uArch: Shader 10 finished CTA #3 (8625,0), 5 CTAs running
Shared mode is : 0
GPGPU-Sim uArch: core: 10, cta: 3 initialized @(8626,0)
GPGPU-Sim uArch: Shader 0 finished CTA #3 (8628,0), 5 CTAs running
Shared mode is : 0
GPGPU-Sim uArch: core:  0, cta: 3 initialized @(8629,0)
GPGPU-Sim uArch: Shader 4 finished CTA #3 (8629,0), 5 CTAs running
Shared mode is : 0
GPGPU-Sim uArch: core:  4, cta: 3 initialized @(8630,0)
GPGPU-Sim uArch: Shader 3 finished CTA #3 (8645,0), 5 CTAs running
Shared mode is : 0
GPGPU-Sim uArch: core:  3, cta: 3 initialized @(8646,0)
GPGPU-Sim uArch: Shader 7 finished CTA #3 (8769,0), 5 CTAs running
Shared mode is : 0
GPGPU-Sim uArch: core:  7, cta: 3 initialized @(8770,0)
GPGPU-Sim uArch: Shader 9 finished CTA #3 (8771,0), 5 CTAs running
Shared mode is : 0
GPGPU-Sim uArch: core:  9, cta: 3 initialized @(8772,0)
GPGPU-Sim uArch: Shader 8 finished CTA #3 (8785,0), 5 CTAs running
Shared mode is : 0
GPGPU-Sim uArch: core:  8, cta: 3 initialized @(8786,0)
GPGPU-Sim uArch: Shader 2 finished CTA #3 (8798,0), 5 CTAs running
Shared mode is : 0
GPGPU-Sim uArch: core:  2, cta: 3 initialized @(8799,0)
GPGPU-Sim uArch: Shader 1 finished CTA #4 (9337,0), 5 CTAs running
Shared mode is : 0
GPGPU-Sim uArch: core:  1, cta: 4 initialized @(9338,0)
GPGPU-Sim uArch: Shader 3 finished CTA #4 (9515,0), 5 CTAs running
Shared mode is : 0
GPGPU-Sim uArch: core:  3, cta: 4 initialized @(9516,0)
GPGPU-Sim uArch: Shader 5 finished CTA #4 (9552,0), 5 CTAs running
Shared mode is : 0
GPGPU-Sim uArch: core:  5, cta: 4 initialized @(9553,0)
GPGPU-Sim uArch: Shader 4 finished CTA #4 (9562,0), 5 CTAs running
Shared mode is : 0
GPGPU-Sim uArch: core:  4, cta: 4 initialized @(9563,0)
GPGPU-Sim uArch: Shader 7 finished CTA #4 (9569,0), 5 CTAs running
Shared mode is : 0
GPGPU-Sim uArch: core:  7, cta: 4 initialized @(9570,0)
GPGPU-Sim uArch: Shader 6 finished CTA #4 (9582,0), 5 CTAs running
Shared mode is : 0
GPGPU-Sim uArch: core:  6, cta: 4 initialized @(9583,0)
GPGPU-Sim uArch: Shader 2 finished CTA #4 (9659,0), 5 CTAs running
Shared mode is : 0
GPGPU-Sim uArch: core:  2, cta: 4 initialized @(9660,0)
GPGPU-Sim uArch: Shader 8 finished CTA #4 (9667,0), 5 CTAs running
Shared mode is : 0
GPGPU-Sim uArch: core:  8, cta: 4 initialized @(9668,0)
GPGPU-Sim uArch: Shader 12 finished CTA #4 (9686,0), 5 CTAs running
Shared mode is : 0
GPGPU-Sim uArch: core: 12, cta: 4 initialized @(9687,0)
GPGPU-Sim uArch: Shader 0 finished CTA #4 (9689,0), 5 CTAs running
Shared mode is : 0
GPGPU-Sim uArch: core:  0, cta: 4 initialized @(9690,0)
GPGPU-Sim uArch: Shader 10 finished CTA #4 (9769,0), 5 CTAs running
Shared mode is : 0
GPGPU-Sim uArch: core: 10, cta: 4 initialized @(9770,0)
GPGPU-Sim uArch: Shader 9 finished CTA #4 (9773,0), 5 CTAs running
Shared mode is : 0
GPGPU-Sim uArch: core:  9, cta: 4 initialized @(9774,0)
GPGPU-Sim uArch: Shader 13 finished CTA #4 (9882,0), 5 CTAs running
Shared mode is : 0
GPGPU-Sim uArch: core: 13, cta: 4 initialized @(9883,0)
GPGPU-Sim uArch: Shader 11 finished CTA #4 (9938,0), 5 CTAs running
Shared mode is : 0
GPGPU-Sim uArch: core: 11, cta: 4 initialized @(9939,0)
GPGPU-Sim uArch: Shader 5 finished CTA #5 (10598,0), 5 CTAs running
Shared mode is : 0
GPGPU-Sim uArch: core:  5, cta: 5 initialized @(10599,0)
GPGPU-Sim uArch: Shader 13 finished CTA #5 (10643,0), 5 CTAs running
Shared mode is : 0
GPGPU-Sim uArch: core: 13, cta: 5 initialized @(10644,0)
GPGPU-Sim uArch: Shader 1 finished CTA #5 (10727,0), 5 CTAs running
Shared mode is : 0
GPGPU-Sim uArch: core:  1, cta: 5 initialized @(10728,0)
GPGPU-Sim uArch: Shader 3 finished CTA #5 (10754,0), 5 CTAs running
Shared mode is : 0
GPGPU-Sim uArch: core:  3, cta: 5 initialized @(10755,0)
GPGPU-Sim uArch: Shader 4 finished CTA #5 (10757,0), 5 CTAs running
Shared mode is : 0
GPGPU-Sim uArch: core:  4, cta: 5 initialized @(10758,0)
GPGPU-Sim uArch: Shader 12 finished CTA #5 (10790,0), 5 CTAs running
Shared mode is : 0
GPGPU-Sim uArch: core: 12, cta: 5 initialized @(10791,0)
GPGPU-Sim uArch: Shader 0 finished CTA #5 (10806,0), 5 CTAs running
Shared mode is : 0
GPGPU-Sim uArch: core:  0, cta: 5 initialized @(10807,0)
GPGPU-Sim uArch: Shader 11 finished CTA #5 (10818,0), 5 CTAs running
Shared mode is : 0
GPGPU-Sim uArch: core: 11, cta: 5 initialized @(10819,0)
GPGPU-Sim uArch: Shader 9 finished CTA #5 (10871,0), 5 CTAs running
Shared mode is : 0
GPGPU-Sim uArch: core:  9, cta: 5 initialized @(10872,0)
GPGPU-Sim uArch: Shader 10 finished CTA #5 (10877,0), 5 CTAs running
Shared mode is : 0
GPGPU-Sim uArch: core: 10, cta: 5 initialized @(10878,0)
GPGPU-Sim uArch: Shader 6 finished CTA #5 (10912,0), 5 CTAs running
Shared mode is : 0
GPGPU-Sim uArch: core:  6, cta: 5 initialized @(10913,0)
GPGPU-Sim uArch: Shader 2 finished CTA #5 (10970,0), 5 CTAs running
Shared mode is : 0
GPGPU-Sim uArch: core:  2, cta: 5 initialized @(10971,0)
GPGPU-Sim uArch: Shader 8 finished CTA #5 (11102,0), 5 CTAs running
Shared mode is : 0
GPGPU-Sim uArch: core:  8, cta: 5 initialized @(11103,0)
GPGPU-Sim uArch: Shader 7 finished CTA #5 (11118,0), 5 CTAs running
Shared mode is : 0
GPGPU-Sim uArch: core:  7, cta: 5 initialized @(11119,0)
GPGPU-Sim uArch: Shader 0 finished CTA #0 (12442,0), 5 CTAs running
Shared mode is : 0
GPGPU-Sim uArch: core:  0, cta: 0 initialized @(12443,0)
GPGPU-Sim uArch: Shader 12 finished CTA #0 (12527,0), 5 CTAs running
Shared mode is : 0
GPGPU-Sim uArch: core: 12, cta: 0 initialized @(12528,0)
GPGPU-Sim uArch: Shader 6 finished CTA #0 (12657,0), 5 CTAs running
Shared mode is : 0
GPGPU-Sim uArch: core:  6, cta: 0 initialized @(12658,0)
GPGPU-Sim uArch: Shader 8 finished CTA #0 (12709,0), 5 CTAs running
Shared mode is : 0
GPGPU-Sim uArch: core:  8, cta: 0 initialized @(12710,0)
GPGPU-Sim uArch: Shader 3 finished CTA #0 (12714,0), 5 CTAs running
Shared mode is : 0
GPGPU-Sim uArch: core:  3, cta: 0 initialized @(12715,0)
GPGPU-Sim uArch: Shader 1 finished CTA #0 (12773,0), 5 CTAs running
Shared mode is : 0
GPGPU-Sim uArch: core:  1, cta: 0 initialized @(12774,0)
GPGPU-Sim uArch: Shader 10 finished CTA #0 (12843,0), 5 CTAs running
Shared mode is : 0
GPGPU-Sim uArch: core: 10, cta: 0 initialized @(12844,0)
GPGPU-Sim uArch: Shader 13 finished CTA #0 (12848,0), 5 CTAs running
Shared mode is : 0
GPGPU-Sim uArch: core: 13, cta: 0 initialized @(12849,0)
GPGPU-Sim uArch: Shader 4 finished CTA #0 (12961,0), 5 CTAs running
Shared mode is : 0
GPGPU-Sim uArch: core:  4, cta: 0 initialized @(12962,0)
GPGPU-Sim uArch: Shader 9 finished CTA #0 (12988,0), 5 CTAs running
Shared mode is : 0
GPGPU-Sim uArch: core:  9, cta: 0 initialized @(12989,0)
GPGPU-Sim uArch: Shader 7 finished CTA #0 (13021,0), 5 CTAs running
Shared mode is : 0
GPGPU-Sim uArch: core:  7, cta: 0 initialized @(13022,0)
GPGPU-Sim uArch: Shader 5 finished CTA #0 (13022,0), 5 CTAs running
Shared mode is : 0
GPGPU-Sim uArch: core:  5, cta: 0 initialized @(13023,0)
GPGPU-Sim uArch: Shader 2 finished CTA #0 (13105,0), 5 CTAs running
Shared mode is : 0
GPGPU-Sim uArch: core:  2, cta: 0 initialized @(13106,0)
GPGPU-Sim uArch: Shader 11 finished CTA #0 (13153,0), 5 CTAs running
Shared mode is : 0
GPGPU-Sim uArch: core: 11, cta: 0 initialized @(13154,0)
GPGPU-Sim uArch: Shader 5 finished CTA #1 (13612,0), 5 CTAs running
Shared mode is : 0
GPGPU-Sim uArch: core:  5, cta: 1 initialized @(13613,0)
GPGPU-Sim uArch: Shader 4 finished CTA #1 (13671,0), 5 CTAs running
Shared mode is : 0
GPGPU-Sim uArch: core:  4, cta: 1 initialized @(13672,0)
GPGPU-Sim uArch: Shader 11 finished CTA #1 (13775,0), 5 CTAs running
Shared mode is : 0
GPGPU-Sim uArch: core: 11, cta: 1 initialized @(13776,0)
GPGPU-Sim uArch: Shader 1 finished CTA #1 (13830,0), 5 CTAs running
Shared mode is : 0
GPGPU-Sim uArch: core:  1, cta: 1 initialized @(13831,0)
GPGPU-Sim uArch: Shader 9 finished CTA #1 (13905,0), 5 CTAs running
Shared mode is : 0
GPGPU-Sim uArch: core:  9, cta: 1 initialized @(13906,0)
GPGPU-Sim uArch: Shader 13 finished CTA #1 (14006,0), 5 CTAs running
Shared mode is : 0
GPGPU-Sim uArch: core: 13, cta: 1 initialized @(14007,0)
GPGPU-Sim uArch: Shader 7 finished CTA #1 (14012,0), 5 CTAs running
Shared mode is : 0
GPGPU-Sim uArch: core:  7, cta: 1 initialized @(14013,0)
GPGPU-Sim uArch: Shader 0 finished CTA #1 (14013,0), 5 CTAs running
Shared mode is : 0
GPGPU-Sim uArch: core:  0, cta: 1 initialized @(14014,0)
GPGPU-Sim uArch: Shader 6 finished CTA #1 (14032,0), 5 CTAs running
Shared mode is : 0
GPGPU-Sim uArch: core:  6, cta: 1 initialized @(14033,0)
GPGPU-Sim uArch: Shader 8 finished CTA #1 (14126,0), 5 CTAs running
Shared mode is : 0
GPGPU-Sim uArch: core:  8, cta: 1 initialized @(14127,0)
GPGPU-Sim uArch: Shader 3 finished CTA #1 (14156,0), 5 CTAs running
Shared mode is : 0
GPGPU-Sim uArch: core:  3, cta: 1 initialized @(14157,0)
GPGPU-Sim uArch: Shader 12 finished CTA #1 (14168,0), 5 CTAs running
Shared mode is : 0
GPGPU-Sim uArch: core: 12, cta: 1 initialized @(14169,0)
GPGPU-Sim uArch: Shader 10 finished CTA #1 (14303,0), 5 CTAs running
Shared mode is : 0
GPGPU-Sim uArch: core: 10, cta: 1 initialized @(14304,0)
GPGPU-Sim uArch: Shader 2 finished CTA #1 (14338,0), 5 CTAs running
Shared mode is : 0
GPGPU-Sim uArch: core:  2, cta: 1 initialized @(14339,0)
GPGPU-Sim uArch: Shader 12 finished CTA #2 (14865,0), 5 CTAs running
Shared mode is : 0
GPGPU-Sim uArch: core: 12, cta: 2 initialized @(14866,0)
GPGPU-Sim uArch: Shader 1 finished CTA #2 (14900,0), 5 CTAs running
Shared mode is : 0
GPGPU-Sim uArch: core:  1, cta: 2 initialized @(14901,0)
GPGPU-Sim uArch: Shader 5 finished CTA #2 (15092,0), 5 CTAs running
Shared mode is : 0
GPGPU-Sim uArch: core:  5, cta: 2 initialized @(15093,0)
GPGPU-Sim uArch: Shader 6 finished CTA #2 (15099,0), 5 CTAs running
Shared mode is : 0
GPGPU-Sim uArch: core:  6, cta: 2 initialized @(15100,0)
GPGPU-Sim uArch: Shader 4 finished CTA #2 (15207,0), 5 CTAs running
Shared mode is : 0
GPGPU-Sim uArch: core:  4, cta: 2 initialized @(15208,0)
GPGPU-Sim uArch: Shader 8 finished CTA #2 (15208,0), 5 CTAs running
Shared mode is : 0
GPGPU-Sim uArch: core:  8, cta: 2 initialized @(15209,0)
GPGPU-Sim uArch: Shader 7 finished CTA #2 (15219,0), 5 CTAs running
Shared mode is : 0
GPGPU-Sim uArch: core:  7, cta: 2 initialized @(15220,0)
GPGPU-Sim uArch: Shader 2 finished CTA #2 (15249,0), 5 CTAs running
Shared mode is : 0
GPGPU-Sim uArch: core:  2, cta: 2 initialized @(15250,0)
GPGPU-Sim uArch: Shader 3 finished CTA #2 (15334,0), 5 CTAs running
Shared mode is : 0
GPGPU-Sim uArch: core:  3, cta: 2 initialized @(15335,0)
GPGPU-Sim uArch: Shader 13 finished CTA #2 (15340,0), 5 CTAs running
Shared mode is : 0
GPGPU-Sim uArch: core: 13, cta: 2 initialized @(15341,0)
GPGPU-Sim uArch: Shader 11 finished CTA #2 (15364,0), 5 CTAs running
Shared mode is : 0
GPGPU-Sim uArch: core: 11, cta: 2 initialized @(15365,0)
GPGPU-Sim uArch: Shader 10 finished CTA #2 (15381,0), 5 CTAs running
Shared mode is : 0
GPGPU-Sim uArch: core: 10, cta: 2 initialized @(15382,0)
GPGPU-Sim uArch: Shader 9 finished CTA #2 (15571,0), 5 CTAs running
Shared mode is : 0
GPGPU-Sim uArch: core:  9, cta: 2 initialized @(15572,0)
GPGPU-Sim uArch: Shader 0 finished CTA #2 (15674,0), 5 CTAs running
Shared mode is : 0
GPGPU-Sim uArch: core:  0, cta: 2 initialized @(15675,0)
GPGPU-Sim uArch: Shader 5 finished CTA #3 (16223,0), 5 CTAs running
Shared mode is : 0
GPGPU-Sim uArch: core:  5, cta: 3 initialized @(16224,0)
GPGPU-Sim uArch: Shader 3 finished CTA #3 (16320,0), 5 CTAs running
Shared mode is : 0
GPGPU-Sim uArch: core:  3, cta: 3 initialized @(16321,0)
GPGPU-Sim uArch: Shader 8 finished CTA #3 (16364,0), 5 CTAs running
Shared mode is : 0
GPGPU-Sim uArch: core:  8, cta: 3 initialized @(16365,0)
GPGPU-Sim uArch: Shader 4 finished CTA #3 (16376,0), 5 CTAs running
Shared mode is : 0
GPGPU-Sim uArch: core:  4, cta: 3 initialized @(16377,0)
GPGPU-Sim uArch: Shader 9 finished CTA #3 (16493,0), 5 CTAs running
Shared mode is : 0
GPGPU-Sim uArch: core:  9, cta: 3 initialized @(16494,0)
GPGPU-Sim uArch: Shader 13 finished CTA #3 (16513,0), 5 CTAs running
Shared mode is : 0
GPGPU-Sim uArch: core: 13, cta: 3 initialized @(16514,0)
GPGPU-Sim uArch: Shader 10 finished CTA #3 (16523,0), 5 CTAs running
Shared mode is : 0
GPGPU-Sim uArch: core: 10, cta: 3 initialized @(16524,0)
GPGPU-Sim uArch: Shader 1 finished CTA #3 (16622,0), 5 CTAs running
Shared mode is : 0
GPGPU-Sim uArch: core:  1, cta: 3 initialized @(16623,0)
GPGPU-Sim uArch: Shader 0 finished CTA #3 (16639,0), 5 CTAs running
Shared mode is : 0
GPGPU-Sim uArch: core:  0, cta: 3 initialized @(16640,0)
GPGPU-Sim uArch: Shader 11 finished CTA #3 (16694,0), 5 CTAs running
Shared mode is : 0
GPGPU-Sim uArch: core: 11, cta: 3 initialized @(16695,0)
GPGPU-Sim uArch: Shader 6 finished CTA #3 (16713,0), 5 CTAs running
Shared mode is : 0
GPGPU-Sim uArch: core:  6, cta: 3 initialized @(16714,0)
GPGPU-Sim uArch: Shader 7 finished CTA #3 (16761,0), 5 CTAs running
Shared mode is : 0
GPGPU-Sim uArch: core:  7, cta: 3 initialized @(16762,0)
GPGPU-Sim uArch: Shader 12 finished CTA #3 (16767,0), 5 CTAs running
Shared mode is : 0
GPGPU-Sim uArch: core: 12, cta: 3 initialized @(16768,0)
GPGPU-Sim uArch: Shader 2 finished CTA #3 (16835,0), 5 CTAs running
Shared mode is : 0
GPGPU-Sim uArch: core:  2, cta: 3 initialized @(16836,0)
GPGPU-Sim uArch: Shader 5 finished CTA #4 (17510,0), 5 CTAs running
Shared mode is : 0
GPGPU-Sim uArch: core:  5, cta: 4 initialized @(17511,0)
GPGPU-Sim uArch: Shader 6 finished CTA #4 (17641,0), 5 CTAs running
Shared mode is : 0
GPGPU-Sim uArch: core:  6, cta: 4 initialized @(17642,0)
GPGPU-Sim uArch: Shader 9 finished CTA #4 (17675,0), 5 CTAs running
GPGPU-Sim uArch: Shader 13 finished CTA #4 (17675,0), 5 CTAs running
Shared mode is : 0
GPGPU-Sim uArch: core:  9, cta: 4 initialized @(17676,0)
Shared mode is : 0
GPGPU-Sim uArch: core: 13, cta: 4 initialized @(17676,0)
GPGPU-Sim uArch: Shader 3 finished CTA #4 (17721,0), 5 CTAs running
Shared mode is : 0
GPGPU-Sim uArch: core:  3, cta: 4 initialized @(17722,0)
GPGPU-Sim uArch: Shader 1 finished CTA #4 (17724,0), 5 CTAs running
Shared mode is : 0
GPGPU-Sim uArch: core:  1, cta: 4 initialized @(17725,0)
GPGPU-Sim uArch: Shader 11 finished CTA #4 (17726,0), 5 CTAs running
Shared mode is : 0
GPGPU-Sim uArch: core: 11, cta: 4 initialized @(17727,0)
GPGPU-Sim uArch: Shader 4 finished CTA #4 (17769,0), 5 CTAs running
Shared mode is : 0
GPGPU-Sim uArch: core:  4, cta: 4 initialized @(17770,0)
GPGPU-Sim uArch: Shader 8 finished CTA #4 (17849,0), 5 CTAs running
Shared mode is : 0
GPGPU-Sim uArch: core:  8, cta: 4 initialized @(17850,0)
GPGPU-Sim uArch: Shader 7 finished CTA #4 (17853,0), 5 CTAs running
Shared mode is : 0
GPGPU-Sim uArch: core:  7, cta: 4 initialized @(17854,0)
GPGPU-Sim uArch: Shader 2 finished CTA #4 (17927,0), 5 CTAs running
Shared mode is : 0
GPGPU-Sim uArch: core:  2, cta: 4 initialized @(17928,0)
GPGPU-Sim uArch: Shader 0 finished CTA #4 (17956,0), 5 CTAs running
Shared mode is : 0
GPGPU-Sim uArch: core:  0, cta: 4 initialized @(17957,0)
GPGPU-Sim uArch: Shader 12 finished CTA #4 (17957,0), 5 CTAs running
Shared mode is : 0
GPGPU-Sim uArch: core: 12, cta: 4 initialized @(17958,0)
GPGPU-Sim uArch: Shader 10 finished CTA #4 (17973,0), 5 CTAs running
Shared mode is : 0
GPGPU-Sim uArch: core: 10, cta: 4 initialized @(17974,0)
GPGPU-Sim uArch: Shader 13 finished CTA #5 (18827,0), 5 CTAs running
Shared mode is : 0
GPGPU-Sim uArch: core: 13, cta: 5 initialized @(18828,0)
GPGPU-Sim uArch: Shader 5 finished CTA #5 (18867,0), 5 CTAs running
Shared mode is : 0
GPGPU-Sim uArch: core:  5, cta: 5 initialized @(18868,0)
GPGPU-Sim uArch: Shader 3 finished CTA #5 (18908,0), 5 CTAs running
Shared mode is : 0
GPGPU-Sim uArch: core:  3, cta: 5 initialized @(18909,0)
GPGPU-Sim uArch: Shader 6 finished CTA #5 (18964,0), 5 CTAs running
Shared mode is : 0
GPGPU-Sim uArch: core:  6, cta: 5 initialized @(18965,0)
GPGPU-Sim uArch: Shader 10 finished CTA #5 (19002,0), 5 CTAs running
Shared mode is : 0
GPGPU-Sim uArch: core: 10, cta: 5 initialized @(19003,0)
GPGPU-Sim uArch: Shader 4 finished CTA #5 (19051,0), 5 CTAs running
Shared mode is : 0
GPGPU-Sim uArch: core:  4, cta: 5 initialized @(19052,0)
GPGPU-Sim uArch: Shader 1 finished CTA #5 (19056,0), 5 CTAs running
Shared mode is : 0
GPGPU-Sim uArch: core:  1, cta: 5 initialized @(19057,0)
GPGPU-Sim uArch: Shader 9 finished CTA #5 (19068,0), 5 CTAs running
Shared mode is : 0
GPGPU-Sim uArch: core:  9, cta: 5 initialized @(19069,0)
GPGPU-Sim uArch: Shader 2 finished CTA #5 (19145,0), 5 CTAs running
Shared mode is : 0
GPGPU-Sim uArch: core:  2, cta: 5 initialized @(19146,0)
GPGPU-Sim uArch: Shader 12 finished CTA #5 (19155,0), 5 CTAs running
Shared mode is : 0
GPGPU-Sim uArch: core: 12, cta: 5 initialized @(19156,0)
GPGPU-Sim uArch: Shader 7 finished CTA #5 (19159,0), 5 CTAs running
Shared mode is : 0
GPGPU-Sim uArch: core:  7, cta: 5 initialized @(19160,0)
GPGPU-Sim uArch: Shader 11 finished CTA #5 (19287,0), 5 CTAs running
Shared mode is : 0
GPGPU-Sim uArch: core: 11, cta: 5 initialized @(19288,0)
GPGPU-Sim uArch: Shader 0 finished CTA #5 (19456,0), 5 CTAs running
Shared mode is : 0
GPGPU-Sim uArch: core:  0, cta: 5 initialized @(19457,0)
GPGPU-Sim uArch: Shader 8 finished CTA #5 (19466,0), 5 CTAs running
Shared mode is : 0
GPGPU-Sim uArch: core:  8, cta: 5 initialized @(19467,0)
GPGPU-Sim uArch: Shader 5 finished CTA #0 (20266,0), 5 CTAs running
Shared mode is : 0
GPGPU-Sim uArch: core:  5, cta: 0 initialized @(20267,0)
GPGPU-Sim uArch: Shader 12 finished CTA #0 (20390,0), 5 CTAs running
Shared mode is : 0
GPGPU-Sim uArch: core: 12, cta: 0 initialized @(20391,0)
GPGPU-Sim uArch: Shader 10 finished CTA #0 (20484,0), 5 CTAs running
Shared mode is : 0
GPGPU-Sim uArch: core: 10, cta: 0 initialized @(20485,0)
GPGPU-Sim uArch: Shader 13 finished CTA #0 (20492,0), 5 CTAs running
Shared mode is : 0
GPGPU-Sim uArch: core: 13, cta: 0 initialized @(20493,0)
GPGPU-Sim uArch: Shader 6 finished CTA #0 (20550,0), 5 CTAs running
Shared mode is : 0
GPGPU-Sim uArch: core:  6, cta: 0 initialized @(20551,0)
GPGPU-Sim uArch: Shader 8 finished CTA #0 (20555,0), 5 CTAs running
Shared mode is : 0
GPGPU-Sim uArch: core:  8, cta: 0 initialized @(20556,0)
GPGPU-Sim uArch: Shader 0 finished CTA #0 (20575,0), 5 CTAs running
Shared mode is : 0
GPGPU-Sim uArch: core:  0, cta: 0 initialized @(20576,0)
GPGPU-Sim uArch: Shader 2 finished CTA #0 (20612,0), 5 CTAs running
Shared mode is : 0
GPGPU-Sim uArch: core:  2, cta: 0 initialized @(20613,0)
GPGPU-Sim uArch: Shader 9 finished CTA #0 (20650,0), 5 CTAs running
Shared mode is : 0
GPGPU-Sim uArch: core:  9, cta: 0 initialized @(20651,0)
GPGPU-Sim uArch: Shader 4 finished CTA #0 (20655,0), 5 CTAs running
Shared mode is : 0
GPGPU-Sim uArch: core:  4, cta: 0 initialized @(20656,0)
GPGPU-Sim uArch: Shader 3 finished CTA #0 (20702,0), 5 CTAs running
Shared mode is : 0
GPGPU-Sim uArch: core:  3, cta: 0 initialized @(20703,0)
GPGPU-Sim uArch: Shader 7 finished CTA #0 (20709,0), 5 CTAs running
Shared mode is : 0
GPGPU-Sim uArch: core:  7, cta: 0 initialized @(20710,0)
GPGPU-Sim uArch: Shader 11 finished CTA #0 (20725,0), 5 CTAs running
Shared mode is : 0
GPGPU-Sim uArch: core: 11, cta: 0 initialized @(20726,0)
GPGPU-Sim uArch: Shader 1 finished CTA #0 (20852,0), 5 CTAs running
Shared mode is : 0
GPGPU-Sim uArch: core:  1, cta: 0 initialized @(20853,0)
GPGPU-Sim uArch: Shader 5 finished CTA #1 (21253,0), 5 CTAs running
Shared mode is : 0
GPGPU-Sim uArch: core:  5, cta: 1 initialized @(21254,0)
GPGPU-Sim uArch: Shader 11 finished CTA #1 (21614,0), 5 CTAs running
Shared mode is : 0
GPGPU-Sim uArch: core: 11, cta: 1 initialized @(21615,0)
GPGPU-Sim uArch: Shader 6 finished CTA #1 (21696,0), 5 CTAs running
Shared mode is : 0
GPGPU-Sim uArch: core:  6, cta: 1 initialized @(21697,0)
GPGPU-Sim uArch: Shader 8 finished CTA #1 (21698,0), 5 CTAs running
Shared mode is : 0
GPGPU-Sim uArch: core:  8, cta: 1 initialized @(21699,0)
GPGPU-Sim uArch: Shader 2 finished CTA #1 (21736,0), 5 CTAs running
Shared mode is : 0
GPGPU-Sim uArch: core:  2, cta: 1 initialized @(21737,0)
GPGPU-Sim uArch: Shader 9 finished CTA #1 (21753,0), 5 CTAs running
Shared mode is : 0
GPGPU-Sim uArch: core:  9, cta: 1 initialized @(21754,0)
GPGPU-Sim uArch: Shader 1 finished CTA #1 (21839,0), 5 CTAs running
Shared mode is : 0
GPGPU-Sim uArch: core:  1, cta: 1 initialized @(21840,0)
GPGPU-Sim uArch: Shader 12 finished CTA #1 (21867,0), 5 CTAs running
Shared mode is : 0
GPGPU-Sim uArch: core: 12, cta: 1 initialized @(21868,0)
GPGPU-Sim uArch: Shader 0 finished CTA #1 (21935,0), 5 CTAs running
Shared mode is : 0
GPGPU-Sim uArch: core:  0, cta: 1 initialized @(21936,0)
GPGPU-Sim uArch: Shader 13 finished CTA #1 (21962,0), 5 CTAs running
Shared mode is : 0
GPGPU-Sim uArch: core: 13, cta: 1 initialized @(21963,0)
GPGPU-Sim uArch: Shader 3 finished CTA #1 (22012,0), 5 CTAs running
Shared mode is : 0
GPGPU-Sim uArch: core:  3, cta: 1 initialized @(22013,0)
GPGPU-Sim uArch: Shader 7 finished CTA #1 (22088,0), 5 CTAs running
Shared mode is : 0
GPGPU-Sim uArch: core:  7, cta: 1 initialized @(22089,0)
GPGPU-Sim uArch: Shader 10 finished CTA #1 (22136,0), 5 CTAs running
Shared mode is : 0
GPGPU-Sim uArch: core: 10, cta: 1 initialized @(22137,0)
GPGPU-Sim uArch: Shader 4 finished CTA #1 (22162,0), 5 CTAs running
Shared mode is : 0
GPGPU-Sim uArch: core:  4, cta: 1 initialized @(22163,0)
GPGPU-Sim uArch: Shader 3 finished CTA #2 (22877,0), 5 CTAs running
Shared mode is : 0
GPGPU-Sim uArch: core:  3, cta: 2 initialized @(22878,0)
GPGPU-Sim uArch: Shader 13 finished CTA #2 (22903,0), 5 CTAs running
Shared mode is : 0
GPGPU-Sim uArch: core: 13, cta: 2 initialized @(22904,0)
GPGPU-Sim uArch: Shader 6 finished CTA #2 (22907,0), 5 CTAs running
Shared mode is : 0
GPGPU-Sim uArch: core:  6, cta: 2 initialized @(22908,0)
GPGPU-Sim uArch: Shader 5 finished CTA #2 (22925,0), 5 CTAs running
Shared mode is : 0
GPGPU-Sim uArch: core:  5, cta: 2 initialized @(22926,0)
GPGPU-Sim uArch: Shader 2 finished CTA #2 (22993,0), 5 CTAs running
Shared mode is : 0
GPGPU-Sim uArch: core:  2, cta: 2 initialized @(22994,0)
GPGPU-Sim uArch: Shader 1 finished CTA #2 (23059,0), 5 CTAs running
Shared mode is : 0
GPGPU-Sim uArch: core:  1, cta: 2 initialized @(23060,0)
GPGPU-Sim uArch: Shader 12 finished CTA #2 (23061,0), 5 CTAs running
Shared mode is : 0
GPGPU-Sim uArch: core: 12, cta: 2 initialized @(23062,0)
GPGPU-Sim uArch: Shader 8 finished CTA #2 (23121,0), 5 CTAs running
Shared mode is : 0
GPGPU-Sim uArch: core:  8, cta: 2 initialized @(23122,0)
GPGPU-Sim uArch: Shader 10 finished CTA #2 (23122,0), 5 CTAs running
Shared mode is : 0
GPGPU-Sim uArch: core: 10, cta: 2 initialized @(23123,0)
GPGPU-Sim uArch: Shader 11 finished CTA #2 (23133,0), 5 CTAs running
Shared mode is : 0
GPGPU-Sim uArch: core: 11, cta: 2 initialized @(23134,0)
GPGPU-Sim uArch: Shader 4 finished CTA #2 (23151,0), 5 CTAs running
Shared mode is : 0
GPGPU-Sim uArch: core:  4, cta: 2 initialized @(23152,0)
GPGPU-Sim uArch: Shader 7 finished CTA #2 (23157,0), 5 CTAs running
Shared mode is : 0
GPGPU-Sim uArch: core:  7, cta: 2 initialized @(23158,0)
GPGPU-Sim uArch: Shader 9 finished CTA #2 (23298,0), 5 CTAs running
Shared mode is : 0
GPGPU-Sim uArch: core:  9, cta: 2 initialized @(23299,0)
GPGPU-Sim uArch: Shader 0 finished CTA #2 (23590,0), 5 CTAs running
Shared mode is : 0
GPGPU-Sim uArch: core:  0, cta: 2 initialized @(23591,0)
GPGPU-Sim uArch: Shader 6 finished CTA #3 (24037,0), 5 CTAs running
Shared mode is : 0
GPGPU-Sim uArch: core:  6, cta: 3 initialized @(24038,0)
GPGPU-Sim uArch: Shader 13 finished CTA #3 (24186,0), 5 CTAs running
Shared mode is : 0
GPGPU-Sim uArch: core: 13, cta: 3 initialized @(24187,0)
GPGPU-Sim uArch: Shader 11 finished CTA #3 (24283,0), 5 CTAs running
Shared mode is : 0
GPGPU-Sim uArch: core: 11, cta: 3 initialized @(24284,0)
GPGPU-Sim uArch: Shader 4 finished CTA #3 (24314,0), 5 CTAs running
Shared mode is : 0
GPGPU-Sim uArch: core:  4, cta: 3 initialized @(24315,0)
GPGPU-Sim uArch: Shader 8 finished CTA #3 (24344,0), 5 CTAs running
Shared mode is : 0
GPGPU-Sim uArch: core:  8, cta: 3 initialized @(24345,0)
GPGPU-Sim uArch: Shader 3 finished CTA #3 (24389,0), 5 CTAs running
Shared mode is : 0
GPGPU-Sim uArch: core:  3, cta: 3 initialized @(24390,0)
GPGPU-Sim uArch: Shader 12 finished CTA #3 (24413,0), 5 CTAs running
Shared mode is : 0
GPGPU-Sim uArch: core: 12, cta: 3 initialized @(24414,0)
GPGPU-Sim uArch: Shader 5 finished CTA #3 (24451,0), 5 CTAs running
Shared mode is : 0
GPGPU-Sim uArch: core:  5, cta: 3 initialized @(24452,0)
GPGPU-Sim uArch: Shader 10 finished CTA #3 (24525,0), 5 CTAs running
Shared mode is : 0
GPGPU-Sim uArch: core: 10, cta: 3 initialized @(24526,0)
GPGPU-Sim uArch: Shader 1 finished CTA #3 (24541,0), 5 CTAs running
Shared mode is : 0
GPGPU-Sim uArch: core:  1, cta: 3 initialized @(24542,0)
GPGPU-Sim uArch: Shader 0 finished CTA #3 (24563,0), 5 CTAs running
Shared mode is : 0
GPGPU-Sim uArch: core:  0, cta: 3 initialized @(24564,0)
GPGPU-Sim uArch: Shader 2 finished CTA #3 (24686,0), 5 CTAs running
Shared mode is : 0
GPGPU-Sim uArch: core:  2, cta: 3 initialized @(24687,0)
GPGPU-Sim uArch: Shader 9 finished CTA #3 (24692,0), 5 CTAs running
Shared mode is : 0
GPGPU-Sim uArch: core:  9, cta: 3 initialized @(24693,0)
GPGPU-Sim uArch: Shader 7 finished CTA #3 (24914,0), 5 CTAs running
Shared mode is : 0
GPGPU-Sim uArch: core:  7, cta: 3 initialized @(24915,0)
GPGPU-Sim uArch: Shader 6 finished CTA #4 (25286,0), 5 CTAs running
Shared mode is : 0
GPGPU-Sim uArch: core:  6, cta: 4 initialized @(25287,0)
GPGPU-Sim uArch: Shader 5 finished CTA #4 (25304,0), 5 CTAs running
Shared mode is : 0
GPGPU-Sim uArch: core:  5, cta: 4 initialized @(25305,0)
GPGPU-Sim uArch: Shader 13 finished CTA #4 (25436,0), 5 CTAs running
Shared mode is : 0
GPGPU-Sim uArch: core: 13, cta: 4 initialized @(25437,0)
GPGPU-Sim uArch: Shader 3 finished CTA #4 (25505,0), 5 CTAs running
Shared mode is : 0
GPGPU-Sim uArch: core:  3, cta: 4 initialized @(25506,0)
GPGPU-Sim uArch: Shader 1 finished CTA #4 (25507,0), 5 CTAs running
Shared mode is : 0
GPGPU-Sim uArch: core:  1, cta: 4 initialized @(25508,0)
GPGPU-Sim uArch: Shader 9 finished CTA #4 (25553,0), 5 CTAs running
Shared mode is : 0
GPGPU-Sim uArch: core:  9, cta: 4 initialized @(25554,0)
GPGPU-Sim uArch: Shader 12 finished CTA #4 (25564,0), 5 CTAs running
Shared mode is : 0
GPGPU-Sim uArch: core: 12, cta: 4 initialized @(25565,0)
GPGPU-Sim uArch: Shader 11 finished CTA #4 (25637,0), 5 CTAs running
Shared mode is : 0
GPGPU-Sim uArch: core: 11, cta: 4 initialized @(25638,0)
GPGPU-Sim uArch: Shader 4 finished CTA #4 (25684,0), 5 CTAs running
Shared mode is : 0
GPGPU-Sim uArch: core:  4, cta: 4 initialized @(25685,0)
GPGPU-Sim uArch: Shader 0 finished CTA #4 (25783,0), 5 CTAs running
Shared mode is : 0
GPGPU-Sim uArch: core:  0, cta: 4 initialized @(25784,0)
GPGPU-Sim uArch: Shader 10 finished CTA #4 (26015,0), 5 CTAs running
Shared mode is : 0
GPGPU-Sim uArch: core: 10, cta: 4 initialized @(26016,0)
GPGPU-Sim uArch: Shader 7 finished CTA #4 (26071,0), 5 CTAs running
Shared mode is : 0
GPGPU-Sim uArch: core:  7, cta: 4 initialized @(26072,0)
GPGPU-Sim uArch: Shader 8 finished CTA #4 (26074,0), 5 CTAs running
Shared mode is : 0
GPGPU-Sim uArch: core:  8, cta: 4 initialized @(26075,0)
GPGPU-Sim uArch: Shader 2 finished CTA #4 (26162,0), 5 CTAs running
Shared mode is : 0
GPGPU-Sim uArch: core:  2, cta: 4 initialized @(26163,0)
GPGPU-Sim uArch: Shader 13 finished CTA #5 (26586,0), 5 CTAs running
Shared mode is : 0
GPGPU-Sim uArch: core: 13, cta: 5 initialized @(26587,0)
GPGPU-Sim uArch: Shader 5 finished CTA #5 (26674,0), 5 CTAs running
Shared mode is : 0
GPGPU-Sim uArch: core:  5, cta: 5 initialized @(26675,0)
GPGPU-Sim uArch: Shader 6 finished CTA #5 (26843,0), 5 CTAs running
Shared mode is : 0
GPGPU-Sim uArch: core:  6, cta: 5 initialized @(26844,0)
GPGPU-Sim uArch: Shader 12 finished CTA #5 (26960,0), 5 CTAs running
Shared mode is : 0
GPGPU-Sim uArch: core: 12, cta: 5 initialized @(26961,0)
GPGPU-Sim uArch: Shader 2 finished CTA #5 (26971,0), 5 CTAs running
Shared mode is : 0
GPGPU-Sim uArch: core:  2, cta: 5 initialized @(26972,0)
GPGPU-Sim uArch: Shader 4 finished CTA #5 (26982,0), 5 CTAs running
Shared mode is : 0
GPGPU-Sim uArch: core:  4, cta: 5 initialized @(26983,0)
GPGPU-Sim uArch: Shader 10 finished CTA #5 (27011,0), 5 CTAs running
Shared mode is : 0
GPGPU-Sim uArch: core: 10, cta: 5 initialized @(27012,0)
GPGPU-Sim uArch: Shader 3 finished CTA #5 (27023,0), 5 CTAs running
Shared mode is : 0
GPGPU-Sim uArch: core:  3, cta: 5 initialized @(27024,0)
GPGPU-Sim uArch: Shader 11 finished CTA #5 (27055,0), 5 CTAs running
Shared mode is : 0
GPGPU-Sim uArch: core: 11, cta: 5 initialized @(27056,0)
GPGPU-Sim uArch: Shader 7 finished CTA #5 (27065,0), 5 CTAs running
Shared mode is : 0
GPGPU-Sim uArch: core:  7, cta: 5 initialized @(27066,0)
GPGPU-Sim uArch: Shader 9 finished CTA #5 (27094,0), 5 CTAs running
Shared mode is : 0
GPGPU-Sim uArch: core:  9, cta: 5 initialized @(27095,0)
GPGPU-Sim uArch: Shader 0 finished CTA #5 (27186,0), 5 CTAs running
Shared mode is : 0
GPGPU-Sim uArch: core:  0, cta: 5 initialized @(27187,0)
GPGPU-Sim uArch: Shader 1 finished CTA #5 (27191,0), 5 CTAs running
Shared mode is : 0
GPGPU-Sim uArch: core:  1, cta: 5 initialized @(27192,0)
GPGPU-Sim uArch: Shader 8 finished CTA #5 (27272,0), 5 CTAs running
Shared mode is : 0
GPGPU-Sim uArch: core:  8, cta: 5 initialized @(27273,0)
GPGPU-Sim uArch: Shader 13 finished CTA #0 (28179,0), 5 CTAs running
Shared mode is : 0
GPGPU-Sim uArch: core: 13, cta: 0 initialized @(28180,0)
GPGPU-Sim uArch: Shader 12 finished CTA #0 (28184,0), 5 CTAs running
Shared mode is : 0
GPGPU-Sim uArch: core: 12, cta: 0 initialized @(28185,0)
GPGPU-Sim uArch: Shader 4 finished CTA #0 (28191,0), 5 CTAs running
Shared mode is : 0
GPGPU-Sim uArch: core:  4, cta: 0 initialized @(28192,0)
GPGPU-Sim uArch: Shader 5 finished CTA #0 (28221,0), 5 CTAs running
Shared mode is : 0
GPGPU-Sim uArch: core:  5, cta: 0 initialized @(28222,0)
GPGPU-Sim uArch: Shader 10 finished CTA #0 (28315,0), 5 CTAs running
Shared mode is : 0
GPGPU-Sim uArch: core: 10, cta: 0 initialized @(28316,0)
GPGPU-Sim uArch: Shader 8 finished CTA #0 (28499,0), 5 CTAs running
Shared mode is : 0
GPGPU-Sim uArch: core:  8, cta: 0 initialized @(28500,0)
GPGPU-Sim uArch: Shader 2 finished CTA #0 (28507,0), 5 CTAs running
Shared mode is : 0
GPGPU-Sim uArch: core:  2, cta: 0 initialized @(28508,0)
GPGPU-Sim uArch: Shader 0 finished CTA #0 (28515,0), 5 CTAs running
Shared mode is : 0
GPGPU-Sim uArch: core:  0, cta: 0 initialized @(28516,0)
GPGPU-Sim uArch: Shader 6 finished CTA #0 (28539,0), 5 CTAs running
Shared mode is : 0
GPGPU-Sim uArch: core:  6, cta: 0 initialized @(28540,0)
GPGPU-Sim uArch: Shader 9 finished CTA #0 (28556,0), 5 CTAs running
Shared mode is : 0
GPGPU-Sim uArch: core:  9, cta: 0 initialized @(28557,0)
GPGPU-Sim uArch: Shader 3 finished CTA #0 (28705,0), 5 CTAs running
Shared mode is : 0
GPGPU-Sim uArch: core:  3, cta: 0 initialized @(28706,0)
GPGPU-Sim uArch: Shader 7 finished CTA #0 (28729,0), 5 CTAs running
Shared mode is : 0
GPGPU-Sim uArch: core:  7, cta: 0 initialized @(28730,0)
GPGPU-Sim uArch: Shader 11 finished CTA #0 (28740,0), 5 CTAs running
Shared mode is : 0
GPGPU-Sim uArch: core: 11, cta: 0 initialized @(28741,0)
GPGPU-Sim uArch: Shader 1 finished CTA #0 (28765,0), 5 CTAs running
Shared mode is : 0
GPGPU-Sim uArch: core:  1, cta: 0 initialized @(28766,0)
GPGPU-Sim uArch: Shader 12 finished CTA #1 (29184,0), 5 CTAs running
Shared mode is : 0
GPGPU-Sim uArch: core: 12, cta: 1 initialized @(29185,0)
GPGPU-Sim uArch: Shader 9 finished CTA #1 (29375,0), 5 CTAs running
Shared mode is : 0
GPGPU-Sim uArch: core:  9, cta: 1 initialized @(29376,0)
GPGPU-Sim uArch: Shader 2 finished CTA #1 (29563,0), 5 CTAs running
Shared mode is : 0
GPGPU-Sim uArch: core:  2, cta: 1 initialized @(29564,0)
GPGPU-Sim uArch: Shader 11 finished CTA #1 (29579,0), 5 CTAs running
Shared mode is : 0
GPGPU-Sim uArch: core: 11, cta: 1 initialized @(29580,0)
GPGPU-Sim uArch: Shader 7 finished CTA #1 (29729,0), 5 CTAs running
Shared mode is : 0
GPGPU-Sim uArch: core:  7, cta: 1 initialized @(29730,0)
GPGPU-Sim uArch: Shader 4 finished CTA #1 (29738,0), 5 CTAs running
Shared mode is : 0
GPGPU-Sim uArch: core:  4, cta: 1 initialized @(29739,0)
GPGPU-Sim uArch: Shader 1 finished CTA #1 (29761,0), 5 CTAs running
Shared mode is : 0
GPGPU-Sim uArch: core:  1, cta: 1 initialized @(29762,0)
GPGPU-Sim uArch: Shader 13 finished CTA #1 (29763,0), 5 CTAs running
Shared mode is : 0
GPGPU-Sim uArch: core: 13, cta: 1 initialized @(29764,0)
GPGPU-Sim uArch: Shader 3 finished CTA #1 (29794,0), 5 CTAs running
Shared mode is : 0
GPGPU-Sim uArch: core:  3, cta: 1 initialized @(29795,0)
GPGPU-Sim uArch: Shader 8 finished CTA #1 (29796,0), 5 CTAs running
Shared mode is : 0
GPGPU-Sim uArch: core:  8, cta: 1 initialized @(29797,0)
GPGPU-Sim uArch: Shader 10 finished CTA #1 (29915,0), 5 CTAs running
Shared mode is : 0
GPGPU-Sim uArch: core: 10, cta: 1 initialized @(29916,0)
GPGPU-Sim uArch: Shader 6 finished CTA #1 (29957,0), 5 CTAs running
Shared mode is : 0
GPGPU-Sim uArch: core:  6, cta: 1 initialized @(29958,0)
GPGPU-Sim uArch: Shader 0 finished CTA #1 (30005,0), 5 CTAs running
Shared mode is : 0
GPGPU-Sim uArch: core:  0, cta: 1 initialized @(30006,0)
GPGPU-Sim uArch: Shader 5 finished CTA #1 (30007,0), 5 CTAs running
Shared mode is : 0
GPGPU-Sim uArch: core:  5, cta: 1 initialized @(30008,0)
GPGPU-Sim uArch: Shader 12 finished CTA #2 (30451,0), 5 CTAs running
Shared mode is : 0
GPGPU-Sim uArch: core: 12, cta: 2 initialized @(30452,0)
GPGPU-Sim uArch: Shader 13 finished CTA #2 (30618,0), 5 CTAs running
Shared mode is : 0
GPGPU-Sim uArch: core: 13, cta: 2 initialized @(30619,0)
GPGPU-Sim uArch: Shader 4 finished CTA #2 (30802,0), 5 CTAs running
Shared mode is : 0
GPGPU-Sim uArch: core:  4, cta: 2 initialized @(30803,0)
GPGPU-Sim uArch: Shader 8 finished CTA #2 (30819,0), 5 CTAs running
Shared mode is : 0
GPGPU-Sim uArch: core:  8, cta: 2 initialized @(30820,0)
GPGPU-Sim uArch: Shader 6 finished CTA #2 (30894,0), 5 CTAs running
Shared mode is : 0
GPGPU-Sim uArch: core:  6, cta: 2 initialized @(30895,0)
GPGPU-Sim uArch: Shader 5 finished CTA #2 (30899,0), 5 CTAs running
Shared mode is : 0
GPGPU-Sim uArch: core:  5, cta: 2 initialized @(30900,0)
GPGPU-Sim uArch: Shader 11 finished CTA #2 (30929,0), 5 CTAs running
Shared mode is : 0
GPGPU-Sim uArch: core: 11, cta: 2 initialized @(30930,0)
GPGPU-Sim uArch: Shader 1 finished CTA #2 (31059,0), 5 CTAs running
Shared mode is : 0
GPGPU-Sim uArch: core:  1, cta: 2 initialized @(31060,0)
GPGPU-Sim uArch: Shader 7 finished CTA #2 (31141,0), 5 CTAs running
Shared mode is : 0
GPGPU-Sim uArch: core:  7, cta: 2 initialized @(31142,0)
GPGPU-Sim uArch: Shader 9 finished CTA #2 (31176,0), 5 CTAs running
Shared mode is : 0
GPGPU-Sim uArch: core:  9, cta: 2 initialized @(31177,0)
GPGPU-Sim uArch: Shader 2 finished CTA #2 (31275,0), 5 CTAs running
Shared mode is : 0
GPGPU-Sim uArch: core:  2, cta: 2 initialized @(31276,0)
GPGPU-Sim uArch: Shader 10 finished CTA #2 (31299,0), 5 CTAs running
Shared mode is : 0
GPGPU-Sim uArch: core: 10, cta: 2 initialized @(31300,0)
GPGPU-Sim uArch: Shader 3 finished CTA #2 (31395,0), 5 CTAs running
Shared mode is : 0
GPGPU-Sim uArch: core:  3, cta: 2 initialized @(31396,0)
GPGPU-Sim uArch: Shader 0 finished CTA #2 (31508,0), 5 CTAs running
Shared mode is : 0
GPGPU-Sim uArch: core:  0, cta: 2 initialized @(31509,0)
GPGPU-Sim uArch: Shader 4 finished CTA #3 (31940,0), 5 CTAs running
Shared mode is : 0
GPGPU-Sim uArch: core:  4, cta: 3 initialized @(31941,0)
GPGPU-Sim uArch: Shader 13 finished CTA #3 (32084,0), 5 CTAs running
Shared mode is : 0
GPGPU-Sim uArch: core: 13, cta: 3 initialized @(32085,0)
GPGPU-Sim uArch: Shader 6 finished CTA #3 (32177,0), 5 CTAs running
Shared mode is : 0
GPGPU-Sim uArch: core:  6, cta: 3 initialized @(32178,0)
GPGPU-Sim uArch: Shader 12 finished CTA #3 (32213,0), 5 CTAs running
Shared mode is : 0
GPGPU-Sim uArch: core: 12, cta: 3 initialized @(32214,0)
GPGPU-Sim uArch: Shader 5 finished CTA #3 (32222,0), 5 CTAs running
GPGPU-Sim uArch: Shader 9 finished CTA #3 (32222,0), 5 CTAs running
Shared mode is : 0
GPGPU-Sim uArch: core:  5, cta: 3 initialized @(32223,0)
Shared mode is : 0
GPGPU-Sim uArch: core:  9, cta: 3 initialized @(32223,0)
GPGPU-Sim uArch: Shader 8 finished CTA #3 (32333,0), 5 CTAs running
Shared mode is : 0
GPGPU-Sim uArch: core:  8, cta: 3 initialized @(32334,0)
GPGPU-Sim uArch: Shader 7 finished CTA #3 (32373,0), 5 CTAs running
Shared mode is : 0
GPGPU-Sim uArch: core:  7, cta: 3 initialized @(32374,0)
GPGPU-Sim uArch: Shader 0 finished CTA #3 (32375,0), 5 CTAs running
Shared mode is : 0
GPGPU-Sim uArch: core:  0, cta: 3 initialized @(32376,0)
GPGPU-Sim uArch: Shader 3 finished CTA #3 (32381,0), 5 CTAs running
Shared mode is : 0
GPGPU-Sim uArch: core:  3, cta: 3 initialized @(32382,0)
GPGPU-Sim uArch: Shader 11 finished CTA #3 (32500,0), 5 CTAs running
Shared mode is : 0
GPGPU-Sim uArch: core: 11, cta: 3 initialized @(32501,0)
GPGPU-Sim uArch: Shader 10 finished CTA #3 (32614,0), 5 CTAs running
Shared mode is : 0
GPGPU-Sim uArch: core: 10, cta: 3 initialized @(32615,0)
GPGPU-Sim uArch: Shader 1 finished CTA #3 (32620,0), 5 CTAs running
Shared mode is : 0
GPGPU-Sim uArch: core:  1, cta: 3 initialized @(32621,0)
GPGPU-Sim uArch: Shader 2 finished CTA #3 (32884,0), 5 CTAs running
Shared mode is : 0
GPGPU-Sim uArch: core:  2, cta: 3 initialized @(32885,0)
GPGPU-Sim uArch: Shader 13 finished CTA #4 (33196,0), 5 CTAs running
Shared mode is : 0
GPGPU-Sim uArch: core: 13, cta: 4 initialized @(33197,0)
GPGPU-Sim uArch: Shader 6 finished CTA #4 (33320,0), 5 CTAs running
Shared mode is : 0
GPGPU-Sim uArch: core:  6, cta: 4 initialized @(33321,0)
GPGPU-Sim uArch: Shader 3 finished CTA #4 (33433,0), 5 CTAs running
Shared mode is : 0
GPGPU-Sim uArch: core:  3, cta: 4 initialized @(33434,0)
GPGPU-Sim uArch: Shader 5 finished CTA #4 (33457,0), 5 CTAs running
Shared mode is : 0
GPGPU-Sim uArch: core:  5, cta: 4 initialized @(33458,0)
GPGPU-Sim uArch: Shader 9 finished CTA #4 (33489,0), 5 CTAs running
Shared mode is : 0
GPGPU-Sim uArch: core:  9, cta: 4 initialized @(33490,0)
GPGPU-Sim uArch: Shader 7 finished CTA #4 (33556,0), 5 CTAs running
Shared mode is : 0
GPGPU-Sim uArch: core:  7, cta: 4 initialized @(33557,0)
GPGPU-Sim uArch: Shader 1 finished CTA #4 (33584,0), 5 CTAs running
Shared mode is : 0
GPGPU-Sim uArch: core:  1, cta: 4 initialized @(33585,0)
GPGPU-Sim uArch: Shader 11 finished CTA #4 (33605,0), 5 CTAs running
Shared mode is : 0
GPGPU-Sim uArch: core: 11, cta: 4 initialized @(33606,0)
GPGPU-Sim uArch: Shader 12 finished CTA #4 (33629,0), 5 CTAs running
Shared mode is : 0
GPGPU-Sim uArch: core: 12, cta: 4 initialized @(33630,0)
GPGPU-Sim uArch: Shader 4 finished CTA #4 (33714,0), 5 CTAs running
Shared mode is : 0
GPGPU-Sim uArch: core:  4, cta: 4 initialized @(33715,0)
GPGPU-Sim uArch: Shader 2 finished CTA #4 (33732,0), 5 CTAs running
Shared mode is : 0
GPGPU-Sim uArch: core:  2, cta: 4 initialized @(33733,0)
GPGPU-Sim uArch: Shader 0 finished CTA #4 (33749,0), 5 CTAs running
Shared mode is : 0
GPGPU-Sim uArch: core:  0, cta: 4 initialized @(33750,0)
GPGPU-Sim uArch: Shader 8 finished CTA #4 (33815,0), 5 CTAs running
Shared mode is : 0
GPGPU-Sim uArch: core:  8, cta: 4 initialized @(33816,0)
GPGPU-Sim uArch: Shader 10 finished CTA #4 (33878,0), 5 CTAs running
Shared mode is : 0
GPGPU-Sim uArch: core: 10, cta: 4 initialized @(33879,0)
GPGPU-Sim uArch: Shader 13 finished CTA #5 (34395,0), 5 CTAs running
Shared mode is : 0
GPGPU-Sim uArch: core: 13, cta: 5 initialized @(34396,0)
GPGPU-Sim uArch: Shader 5 finished CTA #5 (34415,0), 5 CTAs running
Shared mode is : 0
GPGPU-Sim uArch: core:  5, cta: 5 initialized @(34416,0)
GPGPU-Sim uArch: Shader 6 finished CTA #5 (34752,0), 5 CTAs running
Shared mode is : 0
GPGPU-Sim uArch: core:  6, cta: 5 initialized @(34753,0)
GPGPU-Sim uArch: Shader 11 finished CTA #5 (34770,0), 5 CTAs running
Shared mode is : 0
GPGPU-Sim uArch: core: 11, cta: 5 initialized @(34771,0)
GPGPU-Sim uArch: Shader 3 finished CTA #5 (34907,0), 5 CTAs running
Shared mode is : 0
GPGPU-Sim uArch: core:  3, cta: 5 initialized @(34908,0)
GPGPU-Sim uArch: Shader 9 finished CTA #5 (35012,0), 5 CTAs running
Shared mode is : 0
GPGPU-Sim uArch: core:  9, cta: 5 initialized @(35013,0)
GPGPU-Sim uArch: Shader 1 finished CTA #5 (35018,0), 5 CTAs running
Shared mode is : 0
GPGPU-Sim uArch: core:  1, cta: 5 initialized @(35019,0)
GPGPU-Sim uArch: Shader 8 finished CTA #5 (35025,0), 5 CTAs running
Shared mode is : 0
GPGPU-Sim uArch: core:  8, cta: 5 initialized @(35026,0)
GPGPU-Sim uArch: Shader 12 finished CTA #5 (35048,0), 5 CTAs running
Shared mode is : 0
GPGPU-Sim uArch: core: 12, cta: 5 initialized @(35049,0)
GPGPU-Sim uArch: Shader 10 finished CTA #5 (35051,0), 5 CTAs running
Shared mode is : 0
GPGPU-Sim uArch: core: 10, cta: 5 initialized @(35052,0)
GPGPU-Sim uArch: Shader 0 finished CTA #5 (35075,0), 5 CTAs running
Shared mode is : 0
GPGPU-Sim uArch: core:  0, cta: 5 initialized @(35076,0)
GPGPU-Sim uArch: Shader 2 finished CTA #5 (35214,0), 5 CTAs running
Shared mode is : 0
GPGPU-Sim uArch: core:  2, cta: 5 initialized @(35215,0)
GPGPU-Sim uArch: Shader 4 finished CTA #5 (35237,0), 5 CTAs running
Shared mode is : 0
GPGPU-Sim uArch: core:  4, cta: 5 initialized @(35238,0)
GPGPU-Sim uArch: Shader 7 finished CTA #5 (35303,0), 5 CTAs running
Shared mode is : 0
GPGPU-Sim uArch: core:  7, cta: 5 initialized @(35304,0)
GPGPU-Sim uArch: Shader 3 finished CTA #0 (36024,0), 5 CTAs running
Shared mode is : 0
GPGPU-Sim uArch: core:  3, cta: 0 initialized @(36025,0)
GPGPU-Sim uArch: Shader 4 finished CTA #0 (36035,0), 5 CTAs running
Shared mode is : 0
GPGPU-Sim uArch: core:  4, cta: 0 initialized @(36036,0)
GPGPU-Sim uArch: Shader 13 finished CTA #0 (36057,0), 5 CTAs running
Shared mode is : 0
GPGPU-Sim uArch: core: 13, cta: 0 initialized @(36058,0)
GPGPU-Sim uArch: Shader 12 finished CTA #0 (36065,0), 5 CTAs running
Shared mode is : 0
GPGPU-Sim uArch: core: 12, cta: 0 initialized @(36066,0)
GPGPU-Sim uArch: Shader 1 finished CTA #0 (36071,0), 5 CTAs running
Shared mode is : 0
GPGPU-Sim uArch: core:  1, cta: 0 initialized @(36072,0)
GPGPU-Sim uArch: Shader 5 finished CTA #0 (36168,0), 5 CTAs running
Shared mode is : 0
GPGPU-Sim uArch: core:  5, cta: 0 initialized @(36169,0)
GPGPU-Sim uArch: Shader 10 finished CTA #0 (36321,0), 5 CTAs running
Shared mode is : 0
GPGPU-Sim uArch: core: 10, cta: 0 initialized @(36322,0)
GPGPU-Sim uArch: Shader 8 finished CTA #0 (36328,0), 5 CTAs running
Shared mode is : 0
GPGPU-Sim uArch: core:  8, cta: 0 initialized @(36329,0)
GPGPU-Sim uArch: Shader 9 finished CTA #0 (36396,0), 5 CTAs running
Shared mode is : 0
GPGPU-Sim uArch: core:  9, cta: 0 initialized @(36397,0)
GPGPU-Sim uArch: Shader 7 finished CTA #0 (36405,0), 5 CTAs running
Shared mode is : 0
GPGPU-Sim uArch: core:  7, cta: 0 initialized @(36406,0)
GPGPU-Sim uArch: Shader 6 finished CTA #0 (36421,0), 5 CTAs running
Shared mode is : 0
GPGPU-Sim uArch: core:  6, cta: 0 initialized @(36422,0)
GPGPU-Sim uArch: Shader 11 finished CTA #0 (36426,0), 5 CTAs running
Shared mode is : 0
GPGPU-Sim uArch: core: 11, cta: 0 initialized @(36427,0)
GPGPU-Sim uArch: Shader 2 finished CTA #0 (36761,0), 5 CTAs running
Shared mode is : 0
GPGPU-Sim uArch: core:  2, cta: 0 initialized @(36762,0)
GPGPU-Sim uArch: Shader 0 finished CTA #0 (36769,0), 5 CTAs running
Shared mode is : 0
GPGPU-Sim uArch: core:  0, cta: 0 initialized @(36770,0)
GPGPU-Sim uArch: Shader 12 finished CTA #1 (37209,0), 5 CTAs running
Shared mode is : 0
GPGPU-Sim uArch: core: 12, cta: 1 initialized @(37210,0)
GPGPU-Sim uArch: Shader 6 finished CTA #1 (37248,0), 5 CTAs running
Shared mode is : 0
GPGPU-Sim uArch: core:  6, cta: 1 initialized @(37249,0)
GPGPU-Sim uArch: Shader 9 finished CTA #1 (37271,0), 5 CTAs running
Shared mode is : 0
[...]
GPGPU-Sim uArch: Shader 3 finished CTA #0 (168522,388841), 3 CTAs running
GPGPU-Sim uArch: Shader 1 finished CTA #4 (168617,388841), 0 CTAs running
GPGPU-Sim uArch: Shader 1 empty (release kernel 2 '_Z24bpnn_adjust_weights_cudaPfiS_iS_S_').
GPGPU-Sim uArch: Shader 7 finished CTA #4 (168637,388841), 1 CTAs running
GPGPU-Sim uArch: Shader 2 finished CTA #5 (168653,388841), 1 CTAs running
GPGPU-Sim uArch: Shader 0 finished CTA #5 (168657,388841), 0 CTAs running
GPGPU-Sim uArch: Shader 0 empty (release kernel 2 '_Z24bpnn_adjust_weights_cudaPfiS_iS_S_').
GPGPU-Sim uArch: Shader 7 finished CTA #5 (168659,388841), 0 CTAs running
GPGPU-Sim uArch: Shader 7 empty (release kernel 2 '_Z24bpnn_adjust_weights_cudaPfiS_iS_S_').
GPGPU-Sim uArch: Shader 8 finished CTA #5 (168677,388841), 2 CTAs running
GPGPU-Sim uArch: Shader 2 finished CTA #0 (168679,388841), 0 CTAs running
GPGPU-Sim uArch: Shader 2 empty (release kernel 2 '_Z24bpnn_adjust_weights_cudaPfiS_iS_S_').
GPGPU-Sim uArch: Shader 4 finished CTA #1 (168683,388841), 2 CTAs running
GPGPU-Sim uArch: Shader 11 finished CTA #5 (168685,388841), 1 CTAs running
GPGPU-Sim uArch: Shader 9 finished CTA #0 (168697,388841), 2 CTAs running
GPGPU-Sim uArch: Shader 5 finished CTA #4 (168699,388841), 2 CTAs running
GPGPU-Sim uArch: Shader 11 finished CTA #0 (168707,388841), 0 CTAs running
GPGPU-Sim uArch: Shader 11 empty (release kernel 2 '_Z24bpnn_adjust_weights_cudaPfiS_iS_S_').
GPGPU-Sim uArch: Shader 9 finished CTA #1 (168729,388841), 1 CTAs running
GPGPU-Sim uArch: Shader 10 finished CTA #3 (168738,388841), 0 CTAs running
GPGPU-Sim uArch: Shader 10 empty (release kernel 2 '_Z24bpnn_adjust_weights_cudaPfiS_iS_S_').
GPGPU-Sim uArch: Shader 12 finished CTA #0 (168747,388841), 2 CTAs running
GPGPU-Sim uArch: Shader 8 finished CTA #0 (168767,388841), 1 CTAs running
GPGPU-Sim uArch: Shader 6 finished CTA #5 (168780,388841), 2 CTAs running
GPGPU-Sim uArch: Shader 13 finished CTA #1 (168802,388841), 2 CTAs running
GPGPU-Sim uArch: Shader 8 finished CTA #2 (168804,388841), 0 CTAs running
GPGPU-Sim uArch: Shader 8 empty (release kernel 2 '_Z24bpnn_adjust_weights_cudaPfiS_iS_S_').
GPGPU-Sim uArch: Shader 13 finished CTA #4 (168808,388841), 1 CTAs running
GPGPU-Sim uArch: Shader 5 finished CTA #3 (168810,388841), 1 CTAs running
GPGPU-Sim uArch: Shader 3 finished CTA #1 (168817,388841), 2 CTAs running
GPGPU-Sim uArch: Shader 6 finished CTA #1 (168824,388841), 1 CTAs running
GPGPU-Sim uArch: Shader 12 finished CTA #4 (168834,388841), 1 CTAs running
GPGPU-Sim uArch: Shader 12 finished CTA #2 (168843,388841), 0 CTAs running
GPGPU-Sim uArch: Shader 12 empty (release kernel 2 '_Z24bpnn_adjust_weights_cudaPfiS_iS_S_').
GPGPU-Sim uArch: Shader 4 finished CTA #4 (168849,388841), 1 CTAs running
GPGPU-Sim uArch: Shader 9 finished CTA #3 (168852,388841), 0 CTAs running
GPGPU-Sim uArch: Shader 9 empty (release kernel 2 '_Z24bpnn_adjust_weights_cudaPfiS_iS_S_').
GPGPU-Sim uArch: Shader 6 finished CTA #2 (168858,388841), 0 CTAs running
GPGPU-Sim uArch: Shader 6 empty (release kernel 2 '_Z24bpnn_adjust_weights_cudaPfiS_iS_S_').
GPGPU-Sim uArch: Shader 13 finished CTA #2 (168866,388841), 0 CTAs running
GPGPU-Sim uArch: Shader 13 empty (release kernel 2 '_Z24bpnn_adjust_weights_cudaPfiS_iS_S_').
GPGPU-Sim uArch: Shader 4 finished CTA #2 (168871,388841), 0 CTAs running
GPGPU-Sim uArch: Shader 4 empty (release kernel 2 '_Z24bpnn_adjust_weights_cudaPfiS_iS_S_').
GPGPU-Sim uArch: Shader 3 finished CTA #2 (168877,388841), 1 CTAs running
GPGPU-Sim uArch: Shader 5 finished CTA #1 (168897,388841), 0 CTAs running
GPGPU-Sim uArch: Shader 5 empty (release kernel 2 '_Z24bpnn_adjust_weights_cudaPfiS_iS_S_').
GPGPU-Sim uArch: Shader 3 finished CTA #5 (168970,388841), 0 CTAs running
GPGPU-Sim uArch: Shader 3 empty (release kernel 2 '_Z24bpnn_adjust_weights_cudaPfiS_iS_S_').
GPGPU-Sim uArch: GPU detected kernel '_Z24bpnn_adjust_weights_cudaPfiS_iS_S_' finished on shader 3.
kernel_name = _Z24bpnn_adjust_weights_cudaPfiS_iS_S_ 
kernel_launch_uid = 2 
gpu_sim_cycle = 168971
gpu_sim_insn = 59834720
gpu_ipc =     354.1124
gpu_tot_sim_cycle = 557812
gpu_tot_sim_insn = 329974112
gpu_tot_ipc =     591.5508
gpu_tot_issued_cta = 0
gpu_stall_dramfull = 736157
gpu_stall_icnt2sh    = 1440254
gpu_total_sim_rate=484543

========= Core cache stats =========
L1I_cache:
	L1I_total_cache_accesses = 6144147
	L1I_total_cache_misses = 4231
	L1I_total_cache_miss_rate = 0.0007
	L1I_total_cache_pending_hits = 0
	L1I_total_cache_reservation_fails = 6343
L1D_cache:
	L1D_cache_core[0]: Access = 47758, Miss = 18072, Miss_rate = 0.378, Pending_hits = 2064, Reservation_fails = 132620
	L1D_cache_core[1]: Access = 47369, Miss = 17872, Miss_rate = 0.377, Pending_hits = 2201, Reservation_fails = 132452
	L1D_cache_core[2]: Access = 47175, Miss = 18038, Miss_rate = 0.382, Pending_hits = 2289, Reservation_fails = 133297
	L1D_cache_core[3]: Access = 47129, Miss = 17877, Miss_rate = 0.379, Pending_hits = 2094, Reservation_fails = 133647
	L1D_cache_core[4]: Access = 47203, Miss = 17794, Miss_rate = 0.377, Pending_hits = 2138, Reservation_fails = 133230
	L1D_cache_core[5]: Access = 47385, Miss = 18024, Miss_rate = 0.380, Pending_hits = 2180, Reservation_fails = 133075
	L1D_cache_core[6]: Access = 47066, Miss = 17830, Miss_rate = 0.379, Pending_hits = 2191, Reservation_fails = 133558
	L1D_cache_core[7]: Access = 47441, Miss = 17969, Miss_rate = 0.379, Pending_hits = 2133, Reservation_fails = 132322
	L1D_cache_core[8]: Access = 46985, Miss = 17808, Miss_rate = 0.379, Pending_hits = 2118, Reservation_fails = 133914
	L1D_cache_core[9]: Access = 47072, Miss = 17863, Miss_rate = 0.379, Pending_hits = 2037, Reservation_fails = 133872
	L1D_cache_core[10]: Access = 47772, Miss = 18025, Miss_rate = 0.377, Pending_hits = 2043, Reservation_fails = 132494
	L1D_cache_core[11]: Access = 46845, Miss = 17847, Miss_rate = 0.381, Pending_hits = 2104, Reservation_fails = 134018
	L1D_cache_core[12]: Access = 47077, Miss = 17893, Miss_rate = 0.380, Pending_hits = 2168, Reservation_fails = 133287
	L1D_cache_core[13]: Access = 47234, Miss = 17887, Miss_rate = 0.379, Pending_hits = 2114, Reservation_fails = 133338
	L1D_total_cache_accesses = 661511
	L1D_total_cache_misses = 250799
	L1D_total_cache_miss_rate = 0.3791
	L1D_total_cache_pending_hits = 29874
	L1D_total_cache_reservation_fails = 1865124
	L1D_cache_data_port_util = 0.049
	L1D_cache_fill_port_util = 0.024
L1C_cache:
	L1C_total_cache_accesses = 0
	L1C_total_cache_misses = 0
	L1C_total_cache_pending_hits = 0
	L1C_total_cache_reservation_fails = 0
L1T_cache:
	L1T_total_cache_accesses = 0
	L1T_total_cache_misses = 0
	L1T_total_cache_pending_hits = 0
	L1T_total_cache_reservation_fails = 0

Total_core_cache_stats:
	Total_core_cache_stats_breakdown[GLOBAL_ACC_R][HIT] = 216642
	Total_core_cache_stats_breakdown[GLOBAL_ACC_R][HIT_RESERVED] = 29843
	Total_core_cache_stats_breakdown[GLOBAL_ACC_R][MISS] = 185648
	Total_core_cache_stats_breakdown[GLOBAL_ACC_R][RESERVATION_FAIL] = 1278216
	Total_core_cache_stats_breakdown[GLOBAL_ACC_W][HIT] = 164196
	Total_core_cache_stats_breakdown[GLOBAL_ACC_W][HIT_RESERVED] = 31
	Total_core_cache_stats_breakdown[GLOBAL_ACC_W][MISS] = 65151
	Total_core_cache_stats_breakdown[GLOBAL_ACC_W][RESERVATION_FAIL] = 586908
	Total_core_cache_stats_breakdown[INST_ACC_R][HIT] = 6139916
	Total_core_cache_stats_breakdown[INST_ACC_R][MISS] = 4231
	Total_core_cache_stats_breakdown[INST_ACC_R][RESERVATION_FAIL] = 6343
Shader 0 warp_id issue ditsribution:
warp_id:
0, 1, 2, 3, 4, 5, 6, 7, 8, 9, 10, 11, 12, 13, 14, 15, 16, 17, 18, 19, 20, 21, 22, 23, 24, 25, 26, 27, 28, 29, 30, 31, 32, 33, 34, 35, 36, 37, 38, 39, 40, 41, 42, 43, 44, 45, 46, 47, 
distro:
18482, 16865, 17404, 16865, 17943, 16865, 17404, 16865, 18482, 16865, 17404, 16865, 17943, 16865, 17404, 16865, 18482, 16865, 17404, 16865, 17943, 16865, 17404, 16865, 18424, 16807, 17346, 16807, 17885, 16807, 17346, 16807, 18106, 16522, 17050, 16522, 17578, 16522, 17050, 16522, 18106, 16522, 17050, 16522, 17578, 16522, 17050, 16522, 
gpgpu_n_tot_thrd_icount = 369754848
gpgpu_n_tot_w_icount = 11554839
gpgpu_n_stall_shd_mem = 2100644
gpgpu_n_mem_read_local = 0
gpgpu_n_mem_write_local = 0
gpgpu_n_mem_read_global = 185648
gpgpu_n_mem_write_global = 229378
gpgpu_n_mem_texture = 0
gpgpu_n_mem_const = 0
gpgpu_n_load_insn  = 8454224
gpgpu_n_store_insn = 3211296
gpgpu_n_shmem_insn = 6356992
gpgpu_n_tex_insn = 0
gpgpu_n_const_mem_insn = 0
gpgpu_n_param_mem_insn = 0
gpgpu_n_shmem_bkconflict = 0
gpgpu_n_cache_bkconflict = 0
gpgpu_n_intrawarp_mshr_merge = 0
gpgpu_n_cmem_portconflict = 0
gpgpu_stall_shd_mem[c_mem][bk_conf] = 0
gpgpu_stall_shd_mem[c_mem][mshr_rc] = 0
gpgpu_stall_shd_mem[c_mem][icnt_rc] = 0
gpgpu_stall_shd_mem[c_mem][data_port_stall] = 0
gpgpu_stall_shd_mem[t_mem][mshr_rc] = 0
gpgpu_stall_shd_mem[t_mem][icnt_rc] = 0
gpgpu_stall_shd_mem[t_mem][data_port_stall] = 0
gpgpu_stall_shd_mem[s_mem][bk_conf] = 0
gpgpu_stall_shd_mem[gl_mem][bk_conf] = 0
gpgpu_stall_shd_mem[gl_mem][coal_stall] = 2100644
gpgpu_stall_shd_mem[gl_mem][data_port_stall] = 0
gpgpu_stall_shd_mem[g_mem_ld][mshr_rc] = 0
gpgpu_stall_shd_mem[g_mem_ld][icnt_rc] = 0
gpgpu_stall_shd_mem[g_mem_ld][wb_icnt_rc] = 0
gpgpu_stall_shd_mem[g_mem_ld][wb_rsrv_fail] = 0
gpgpu_stall_shd_mem[g_mem_st][mshr_rc] = 0
gpgpu_stall_shd_mem[g_mem_st][icnt_rc] = 0
gpgpu_stall_shd_mem[g_mem_st][wb_icnt_rc] = 0
gpgpu_stall_shd_mem[g_mem_st][wb_rsrv_fail] = 0
gpgpu_stall_shd_mem[l_mem_ld][mshr_rc] = 0
gpgpu_stall_shd_mem[l_mem_ld][icnt_rc] = 0
gpgpu_stall_shd_mem[l_mem_ld][wb_icnt_rc] = 0
gpgpu_stall_shd_mem[l_mem_ld][wb_rsrv_fail] = 0
gpgpu_stall_shd_mem[l_mem_st][mshr_rc] = 0
gpgpu_stall_shd_mem[l_mem_st][icnt_rc] = 0
gpgpu_stall_shd_mem[l_mem_ld][wb_icnt_rc] = 0
gpgpu_stall_shd_mem[l_mem_ld][wb_rsrv_fail] = 0
gpu_reg_bank_conflict_stalls = 0
Warp Occupancy Distribution:
Stall:3506176	W0_Idle:30988	W0_Scoreboard:509125	W1:0	W2:720896	W3:0	W4:0	W5:0	W6:0	W7:0	W8:0	W9:0	W10:0	W11:0	W12:0	W13:0	W14:0	W15:0	W16:675863	W17:0	W18:0	W19:0	W20:0	W21:0	W22:0	W23:0	W24:0	W25:0	W26:0	W27:0	W28:0	W29:0	W30:0	W31:0	W32:10158080
Stall[0]:  251377 Stall[1]:  249789 Stall[2]:  250940 Stall[3]:  251667 Stall[4]:  250205 Stall[5]:  250077 Stall[6]:  250673 Stall[7]:  247826 Stall[8]:  250573 Stall[9]:  251485 Stall[10]:  247330 Stall[11]:  252932 Stall[12]:  250680 Stall[13]:  250622 
traffic_breakdown_coretomem[GLOBAL_ACC_R] = 1485184 {8:185648,}
traffic_breakdown_coretomem[GLOBAL_ACC_W] = 20185360 {40:81920,72:49152,136:98306,}
traffic_breakdown_coretomem[INST_ACC_R] = 1456 {8:182,}
traffic_breakdown_memtocore[GLOBAL_ACC_R] = 25248128 {136:185648,}
traffic_breakdown_memtocore[GLOBAL_ACC_W] = 1835024 {8:229378,}
traffic_breakdown_memtocore[INST_ACC_R] = 24752 {136:182,}
Memory Partition 0: 
Cache L2_bank_000:
MSHR contents

Cache L2_bank_001:
MSHR contents

In Dram Latency Queue (total = 0): 
DRAM[0]: 16 bks, busW=4 BL=8 CL=12, tRRD=2 tCCD=6, tRCD=12 tRAS=28 tRP=12 tRC=40
n_cmd=727579 n_nop=629217 n_act=13318 n_pre=13302 n_req=36555 n_rd=36868 n_write=34874 bw_util=0.1972
n_activity=429098 dram_eff=0.3344
bk0: 2304a 680975i bk1: 2306a 680775i bk2: 2304a 681567i bk3: 2304a 680702i bk4: 2306a 679678i bk5: 2304a 680162i bk6: 2304a 681555i bk7: 2304a 679054i bk8: 2304a 680192i bk9: 2304a 679295i bk10: 2304a 681015i bk11: 2304a 680465i bk12: 2304a 680180i bk13: 2304a 681453i bk14: 2304a 679766i bk15: 2304a 680706i 
dram_util_bins: 0 0 0 0 0 0 0 0 0 0
dram_eff_bins: 0 0 0 0 0 0 0 0 0 0
mrqq: max=16 avg=2.63727
Memory Partition 1: 
Cache L2_bank_002:
MSHR contents

Cache L2_bank_003:
MSHR contents

In Dram Latency Queue (total = 0): 
DRAM[1]: 16 bks, busW=4 BL=8 CL=12, tRRD=2 tCCD=6, tRCD=12 tRAS=28 tRP=12 tRC=40
n_cmd=727579 n_nop=629292 n_act=13286 n_pre=13270 n_req=36549 n_rd=36860 n_write=34871 bw_util=0.1972
n_activity=429817 dram_eff=0.3338
bk0: 2300a 681970i bk1: 2304a 681555i bk2: 2304a 681363i bk3: 2304a 679888i bk4: 2304a 679939i bk5: 2304a 680195i bk6: 2304a 681072i bk7: 2304a 679822i bk8: 2304a 679751i bk9: 2304a 680281i bk10: 2304a 679953i bk11: 2304a 681292i bk12: 2304a 679949i bk13: 2304a 679112i bk14: 2304a 678489i bk15: 2304a 679894i 
dram_util_bins: 0 0 0 0 0 0 0 0 0 0
dram_eff_bins: 0 0 0 0 0 0 0 0 0 0
mrqq: max=16 avg=2.66858
Memory Partition 2: 
Cache L2_bank_004:
MSHR contents

Cache L2_bank_005:
MSHR contents

In Dram Latency Queue (total = 0): 
DRAM[2]: 16 bks, busW=4 BL=8 CL=12, tRRD=2 tCCD=6, tRCD=12 tRAS=28 tRP=12 tRC=40
n_cmd=727579 n_nop=629259 n_act=13294 n_pre=13278 n_req=36556 n_rd=36876 n_write=34872 bw_util=0.1972
n_activity=427463 dram_eff=0.3357
bk0: 2308a 682624i bk1: 2304a 680780i bk2: 2304a 680898i bk3: 2304a 680797i bk4: 2304a 680401i bk5: 2312a 680275i bk6: 2304a 681645i bk7: 2304a 679550i bk8: 2304a 681111i bk9: 2304a 680747i bk10: 2304a 679698i bk11: 2304a 681412i bk12: 2304a 680225i bk13: 2304a 678959i bk14: 2304a 679835i bk15: 2304a 681546i 
dram_util_bins: 0 0 0 0 0 0 0 0 0 0
dram_eff_bins: 0 0 0 0 0 0 0 0 0 0
mrqq: max=16 avg=2.64225
Memory Partition 3: 
Cache L2_bank_006:
MSHR contents

Cache L2_bank_007:
MSHR contents

In Dram Latency Queue (total = 0): 
DRAM[3]: 16 bks, busW=4 BL=8 CL=12, tRRD=2 tCCD=6, tRCD=12 tRAS=28 tRP=12 tRC=40
n_cmd=727579 n_nop=628987 n_act=13432 n_pre=13416 n_req=36552 n_rd=36874 n_write=34870 bw_util=0.1972
n_activity=427237 dram_eff=0.3359
bk0: 2306a 682256i bk1: 2304a 679604i bk2: 2304a 679519i bk3: 2304a 681116i bk4: 2304a 679530i bk5: 2312a 680792i bk6: 2304a 681034i bk7: 2304a 679900i bk8: 2304a 679913i bk9: 2304a 680282i bk10: 2304a 679854i bk11: 2304a 679560i bk12: 2304a 679992i bk13: 2304a 679415i bk14: 2304a 679158i bk15: 2304a 679857i 
dram_util_bins: 0 0 0 0 0 0 0 0 0 0
dram_eff_bins: 0 0 0 0 0 0 0 0 0 0
mrqq: max=16 avg=2.60415
Memory Partition 4: 
Cache L2_bank_008:
MSHR contents

Cache L2_bank_009:
MSHR contents

In Dram Latency Queue (total = 0): 
DRAM[4]: 16 bks, busW=4 BL=8 CL=12, tRRD=2 tCCD=6, tRCD=12 tRAS=28 tRP=12 tRC=40
n_cmd=727579 n_nop=628765 n_act=13546 n_pre=13530 n_req=36549 n_rd=36872 n_write=34866 bw_util=0.1972
n_activity=428773 dram_eff=0.3346
bk0: 2308a 681311i bk1: 2304a 680711i bk2: 2304a 679282i bk3: 2304a 680866i bk4: 2304a 680266i bk5: 2308a 680119i bk6: 2304a 679740i bk7: 2304a 680884i bk8: 2304a 679034i bk9: 2304a 681065i bk10: 2304a 679214i bk11: 2304a 681152i bk12: 2304a 679874i bk13: 2304a 679190i bk14: 2304a 678090i bk15: 2304a 680970i 
dram_util_bins: 0 0 0 0 0 0 0 0 0 0
dram_eff_bins: 0 0 0 0 0 0 0 0 0 0
mrqq: max=16 avg=2.61498
Memory Partition 5: 
Cache L2_bank_010:
MSHR contents

Cache L2_bank_011:
MSHR contents

In Dram Latency Queue (total = 0): 
DRAM[5]: 16 bks, busW=4 BL=8 CL=12, tRRD=2 tCCD=6, tRCD=12 tRAS=28 tRP=12 tRC=40
n_cmd=727579 n_nop=628869 n_act=13490 n_pre=13474 n_req=36557 n_rd=36872 n_write=34874 bw_util=0.1972
n_activity=429299 dram_eff=0.3342
bk0: 2308a 681963i bk1: 2304a 680079i bk2: 2304a 680160i bk3: 2304a 680067i bk4: 2304a 681670i bk5: 2308a 680223i bk6: 2304a 681519i bk7: 2304a 679722i bk8: 2304a 679837i bk9: 2304a 680243i bk10: 2304a 679492i bk11: 2304a 679037i bk12: 2304a 678372i bk13: 2304a 678562i bk14: 2304a 679570i bk15: 2304a 679394i 
dram_util_bins: 0 0 0 0 0 0 0 0 0 0
dram_eff_bins: 0 0 0 0 0 0 0 0 0 0
mrqq: max=16 avg=2.62532

========= L2 cache stats =========
L2_cache_bank[0]: Access = 34564, Miss = 9217, Miss_rate = 0.267, Pending_hits = 703, Reservation_fails = 20487
L2_cache_bank[1]: Access = 34571, Miss = 9217, Miss_rate = 0.267, Pending_hits = 703, Reservation_fails = 20115
L2_cache_bank[2]: Access = 34578, Miss = 9214, Miss_rate = 0.266, Pending_hits = 706, Reservation_fails = 20706
L2_cache_bank[3]: Access = 34615, Miss = 9216, Miss_rate = 0.266, Pending_hits = 696, Reservation_fails = 19548
L2_cache_bank[4]: Access = 34595, Miss = 9218, Miss_rate = 0.266, Pending_hits = 689, Reservation_fails = 19937
L2_cache_bank[5]: Access = 34533, Miss = 9220, Miss_rate = 0.267, Pending_hits = 702, Reservation_fails = 20264
L2_cache_bank[6]: Access = 34893, Miss = 9217, Miss_rate = 0.264, Pending_hits = 704, Reservation_fails = 20121
L2_cache_bank[7]: Access = 34520, Miss = 9220, Miss_rate = 0.267, Pending_hits = 705, Reservation_fails = 20623
L2_cache_bank[8]: Access = 34512, Miss = 9218, Miss_rate = 0.267, Pending_hits = 703, Reservation_fails = 20577
L2_cache_bank[9]: Access = 34560, Miss = 9218, Miss_rate = 0.267, Pending_hits = 698, Reservation_fails = 19989
L2_cache_bank[10]: Access = 34560, Miss = 9218, Miss_rate = 0.267, Pending_hits = 706, Reservation_fails = 20255
L2_cache_bank[11]: Access = 34707, Miss = 9218, Miss_rate = 0.266, Pending_hits = 724, Reservation_fails = 20066
L2_total_cache_accesses = 415208
L2_total_cache_misses = 110611
L2_total_cache_miss_rate = 0.2664
L2_total_cache_pending_hits = 8439
L2_total_cache_reservation_fails = 242688
L2_total_cache_breakdown:
	L2_cache_stats_breakdown[GLOBAL_ACC_R][HIT] = 74837
	L2_cache_stats_breakdown[GLOBAL_ACC_R][HIT_RESERVED] = 2261
	L2_cache_stats_breakdown[GLOBAL_ACC_R][MISS] = 108550
	L2_cache_stats_breakdown[GLOBAL_ACC_R][RESERVATION_FAIL] = 2358
	L2_cache_stats_breakdown[GLOBAL_ACC_W][HIT] = 221191
	L2_cache_stats_breakdown[GLOBAL_ACC_W][HIT_RESERVED] = 6139
	L2_cache_stats_breakdown[GLOBAL_ACC_W][MISS] = 2048
	L2_cache_stats_breakdown[GLOBAL_ACC_W][RESERVATION_FAIL] = 238964
	L2_cache_stats_breakdown[INST_ACC_R][HIT] = 130
	L2_cache_stats_breakdown[INST_ACC_R][HIT_RESERVED] = 39
	L2_cache_stats_breakdown[INST_ACC_R][MISS] = 13
	L2_cache_stats_breakdown[INST_ACC_R][RESERVATION_FAIL] = 1366
L2_cache_data_port_util = 0.188
L2_cache_fill_port_util = 0.066

icnt_total_pkts_mem_to_simt=1158528
icnt_total_pkts_simt_to_mem=988656
LD_mem_lat_dist  0 0 0 0 0 0 0 0 0 0 0 0 0 0 0 0 0 0 0 0 0 0 0 0 0 0 0
ST_mem_lat_dist  0 0 0 0 0 0 0 0 0 0 0 0 0 0 0 0 0 0 0 0 0 0 0 0 0 0 0
----------------------------Interconnect-DETAILS--------------------------------
Class 0:
Packet latency average = 49.6663
	minimum = 6
	maximum = 560
Network latency average = 30.6003
	minimum = 6
	maximum = 560
Slowest packet = 288254
Flit latency average = 24.6398
	minimum = 6
	maximum = 560
Slowest flit = 683654
Fragmentation average = 0.247921
	minimum = 0
	maximum = 196
Injected packet rate average = 0.1237
	minimum = 0.113872 (at node 6)
	maximum = 0.135692 (at node 20)
Accepted packet rate average = 0.1237
	minimum = 0.113872 (at node 6)
	maximum = 0.135692 (at node 20)
Injected flit rate average = 0.333806
	minimum = 0.264608 (at node 11)
	maximum = 0.419883 (at node 20)
Accepted flit rate average= 0.333806
	minimum = 0.311255 (at node 22)
	maximum = 0.358931 (at node 0)
Injected packet length average = 2.69852
Accepted packet length average = 2.69852
Total in-flight flits = 0 (0 measured)
====== Overall Traffic Statistics ======
====== Traffic class 0 ======
Packet latency average = 30.8848 (2 samples)
	minimum = 6 (2 samples)
	maximum = 396 (2 samples)
Network latency average = 20.4656 (2 samples)
	minimum = 6 (2 samples)
	maximum = 395.5 (2 samples)
Flit latency average = 16.9393 (2 samples)
	minimum = 6 (2 samples)
	maximum = 395 (2 samples)
Fragmentation average = 0.144332 (2 samples)
	minimum = 0 (2 samples)
	maximum = 160 (2 samples)
Injected packet rate average = 0.0760426 (2 samples)
	minimum = 0.070089 (2 samples)
	maximum = 0.0832674 (2 samples)
Accepted packet rate average = 0.0760426 (2 samples)
	minimum = 0.070089 (2 samples)
	maximum = 0.0832674 (2 samples)
Injected flit rate average = 0.200568 (2 samples)
	minimum = 0.164933 (2 samples)
	maximum = 0.244805 (2 samples)
Accepted flit rate average = 0.200568 (2 samples)
	minimum = 0.185348 (2 samples)
	maximum = 0.21774 (2 samples)
Injected packet size average = 2.63757 (2 samples)
Accepted packet size average = 2.63757 (2 samples)
Hops average = 1 (2 samples)
----------------------------END-of-Interconnect-DETAILS-------------------------


gpgpu_simulation_time = 0 days, 0 hrs, 11 min, 21 sec (681 sec)
gpgpu_simulation_rate = 484543 (inst/sec)
gpgpu_simulation_rate = 819 (cycle/sec)
Training done
