

        *** GPGPU-Sim Simulator Version 3.2.2  [build 17315] ***


GPGPU-Sim PTX: simulation mode 0 (can change with PTX_SIM_MODE_FUNC environment variable:
               1=functional simulation only, 0=detailed performance simulator)
GPGPU-Sim: Configuration options:

-network_mode                           1 # Interconnection network mode
-inter_config_file   config_fermi_islip.icnt # Interconnection network config file
-gpgpu_ptx_use_cuobjdump                    1 # Use cuobjdump to extract ptx and sass from binaries
-gpgpu_experimental_lib_support                    0 # Try to extract code from cuda libraries [Broken because of unknown cudaGetExportTable]
-gpgpu_ptx_convert_to_ptxplus                    1 # Convert SASS (native ISA) to ptxplus and run ptxplus
-gpgpu_ptx_force_max_capability                   20 # Force maximum compute capability
-gpgpu_ptx_inst_debug_to_file                    0 # Dump executed instructions' debug information to file
-gpgpu_ptx_inst_debug_file       inst_debug.txt # Executed instructions' debug output file
-gpgpu_ptx_inst_debug_thread_uid                    1 # Thread UID for executed instructions' debug output
-gpgpu_simd_model                       1 # 1 = post-dominator
-gpgpu_shader_core_pipeline              1536:32 # shader core pipeline config, i.e., {<nthread>:<warpsize>}
-gpgpu_tex_cache:l1  4:128:24,L:R:m:N,F:128:4,128:2 # per-shader L1 texture cache  (READ-ONLY) config  {<nsets>:<bsize>:<assoc>,<rep>:<wr>:<alloc>:<wr_alloc>,<mshr>:<N>:<merge>,<mq>:<rf>}
-gpgpu_const_cache:l1 64:64:2,L:R:f:N,A:2:32,4 # per-shader L1 constant memory cache  (READ-ONLY) config  {<nsets>:<bsize>:<assoc>,<rep>:<wr>:<alloc>:<wr_alloc>,<mshr>:<N>:<merge>,<mq>} 
-gpgpu_cache:il1     4:128:4,L:R:f:N,A:2:32,4 # shader L1 instruction cache config  {<nsets>:<bsize>:<assoc>,<rep>:<wr>:<alloc>:<wr_alloc>,<mshr>:<N>:<merge>,<mq>} 
-gpgpu_cache:dl1     32:128:4,L:L:m:N,A:32:8,8 # per-shader L1 data cache config  {<nsets>:<bsize>:<assoc>,<rep>:<wr>:<alloc>:<wr_alloc>,<mshr>:<N>:<merge>,<mq> | none}
-gpgpu_cache:dl1PrefL1                 none # per-shader L1 data cache config  {<nsets>:<bsize>:<assoc>,<rep>:<wr>:<alloc>:<wr_alloc>,<mshr>:<N>:<merge>,<mq> | none}
-gpgpu_cache:dl1PreShared                 none # per-shader L1 data cache config  {<nsets>:<bsize>:<assoc>,<rep>:<wr>:<alloc>:<wr_alloc>,<mshr>:<N>:<merge>,<mq> | none}
-gmem_skip_L1D                          0 # global memory access skip L1D cache (implements -Xptxas -dlcm=cg, default=no skip)
-gpgpu_perfect_mem                      0 # enable perfect memory mode (no cache miss)
-n_regfile_gating_group                    4 # group of lanes that should be read/written together)
-gpgpu_clock_gated_reg_file                    0 # enable clock gated reg file for power calculations
-gpgpu_clock_gated_lanes                    0 # enable clock gated lanes for power calculations
-gpgpu_shader_registers                32768 # Number of registers per shader core. Limits number of concurrent CTAs. (default 8192)
-gpgpu_shader_cta                       8 # Maximum number of concurrent CTAs in shader (default 8)
-gpgpu_n_clusters                      14 # number of processing clusters
-gpgpu_n_cores_per_cluster                    1 # number of simd cores per cluster
-gpgpu_n_cluster_ejection_buffer_size                    8 # number of packets in ejection buffer
-gpgpu_n_ldst_response_buffer_size                    2 # number of response packets in ld/st unit ejection buffer
-gpgpu_shmem_size                   16384 # Size of shared memory per shader core (default 16kB)
-gpgpu_shmem_size                   49152 # Size of shared memory per shader core (default 16kB)
-gpgpu_shmem_size_PrefL1                16384 # Size of shared memory per shader core (default 16kB)
-gpgpu_shmem_size_PrefShared                16384 # Size of shared memory per shader core (default 16kB)
-gpgpu_shmem_num_banks                   32 # Number of banks in the shared memory in each shader core (default 16)
-gpgpu_shmem_limited_broadcast                    0 # Limit shared memory to do one broadcast per cycle (default on)
-gpgpu_shmem_warp_parts                    1 # Number of portions a warp is divided into for shared memory bank conflict check 
-gpgpu_warpdistro_shader                   -1 # Specify which shader core to collect the warp size distribution from
-gpgpu_warp_issue_shader                    0 # Specify which shader core to collect the warp issue distribution from
-gpgpu_local_mem_map                    1 # Mapping from local memory space address to simulated GPU physical address space (default = enabled)
-gpgpu_num_reg_banks                   16 # Number of register banks (default = 8)
-gpgpu_reg_bank_use_warp_id                    0 # Use warp ID in mapping registers to banks (default = off)
-gpgpu_operand_collector_num_units_sp                    6 # number of collector units (default = 4)
-gpgpu_operand_collector_num_units_sfu                    8 # number of collector units (default = 4)
-gpgpu_operand_collector_num_units_mem                    2 # number of collector units (default = 2)
-gpgpu_operand_collector_num_units_gen                    0 # number of collector units (default = 0)
-gpgpu_operand_collector_num_in_ports_sp                    2 # number of collector unit in ports (default = 1)
-gpgpu_operand_collector_num_in_ports_sfu                    1 # number of collector unit in ports (default = 1)
-gpgpu_operand_collector_num_in_ports_mem                    1 # number of collector unit in ports (default = 1)
-gpgpu_operand_collector_num_in_ports_gen                    0 # number of collector unit in ports (default = 0)
-gpgpu_operand_collector_num_out_ports_sp                    2 # number of collector unit in ports (default = 1)
-gpgpu_operand_collector_num_out_ports_sfu                    1 # number of collector unit in ports (default = 1)
-gpgpu_operand_collector_num_out_ports_mem                    1 # number of collector unit in ports (default = 1)
-gpgpu_operand_collector_num_out_ports_gen                    0 # number of collector unit in ports (default = 0)
-gpgpu_coalesce_arch                   13 # Coalescing arch (default = 13, anything else is off for now)
-gpgpu_num_sched_per_core                    2 # Number of warp schedulers per core
-gpgpu_max_insn_issue_per_warp                    1 # Max number of instructions that can be issued per warp in one cycle by scheduler
-gpgpu_simt_core_sim_order                    1 # Select the simulation order of cores in a cluster (0=Fix, 1=Round-Robin)
-gpgpu_pipeline_widths        2,1,1,2,1,1,2 # Pipeline widths ID_OC_SP,ID_OC_SFU,ID_OC_MEM,OC_EX_SP,OC_EX_SFU,OC_EX_MEM,EX_WB
-gpgpu_num_sp_units                     2 # Number of SP units (default=1)
-gpgpu_num_sfu_units                    1 # Number of SF units (default=1)
-gpgpu_num_mem_units                    1 # Number if ldst units (default=1) WARNING: not hooked up to anything
-gpgpu_scheduler                      owf # Scheduler configuration: < lrr | gto | two_level_active > If two_level_active:<num_active_warps>:<inner_prioritization>:<outer_prioritization>For complete list of prioritization values see shader.h enum scheduler_prioritization_typeDefault: gto
-gpgpu_reg_sharing_approach                    4 # Approach used register sharing (default=3)
-gpgpu_reg_share_thersh_hold                  0.1 # Thresh hold factor used for sharing (default=0.5)
-gpgpu_dram_scheduler                    1 # 0 = fifo, 1 = FR-FCFS (defaul)
-gpgpu_dram_partition_queues              8:8:8:8 # i2$:$2d:d2$:$2i
-l2_ideal                               0 # Use a ideal L2 cache that always hit
-gpgpu_cache:dl2     64:128:8,L:B:m:W,A:32:4,4:0,32 # unified banked L2 data cache config  {<nsets>:<bsize>:<assoc>,<rep>:<wr>:<alloc>:<wr_alloc>,<mshr>:<N>:<merge>,<mq>}
-gpgpu_cache:dl2_texture_only                    0 # L2 cache used for texture only
-gpgpu_n_mem                            6 # number of memory modules (e.g. memory controllers) in gpu
-gpgpu_n_sub_partition_per_mchannel                    2 # number of memory subpartition in each memory module
-gpgpu_n_mem_per_ctrlr                    2 # number of memory chips per memory controller
-gpgpu_memlatency_stat                    0 # track and display latency statistics 0x2 enables MC, 0x4 enables queue logs
-gpgpu_frfcfs_dram_sched_queue_size                   16 # 0 = unlimited (default); # entries per chip
-gpgpu_dram_return_queue_size                  114 # 0 = unlimited (default); # entries per chip
-gpgpu_dram_buswidth                    4 # default = 4 bytes (8 bytes per cycle at DDR)
-gpgpu_dram_burst_length                    8 # Burst length of each DRAM request (default = 4 data bus cycle)
-dram_data_command_freq_ratio                    4 # Frequency ratio between DRAM data bus and command bus (default = 2 times, i.e. DDR)
-gpgpu_dram_timing_opt nbk=16:CCD=2:RRD=6:RCD=12:RAS=28:RP=12:RC=40: CL=12:WL=4:CDLR=5:WR=12:nbkgrp=4:CCDL=3:RTPL=2 # DRAM timing parameters = {nbk:tCCD:tRRD:tRCD:tRAS:tRP:tRC:CL:WL:tCDLR:tWR:nbkgrp:tCCDL:tRTPL}
-rop_latency                          120 # ROP queue latency (default 85)
-dram_latency                         100 # DRAM latency (default 30)
-gpgpu_mem_addr_mapping dramid@8;00000000.00000000.00000000.00000000.0000RRRR.RRRRRRRR.BBBCCCCB.CCSSSSSS # mapping memory address to dram model {dramid@<start bit>;<memory address map>}
-gpgpu_mem_addr_test                    0 # run sweep test to check address mapping for aliased address
-gpgpu_mem_address_mask                    1 # 0 = old addressing mask, 1 = new addressing mask, 2 = new add. mask + flipped bank sel and chip sel bits
-gpuwattch_xml_file         gpuwattch.xml # GPUWattch XML file
-power_simulation_enabled                    0 # Turn on power simulator (1=On, 0=Off)
-power_per_cycle_dump                    0 # Dump detailed power output each cycle
-power_trace_enabled                    0 # produce a file for the power trace (1=On, 0=Off)
-power_trace_zlevel                     6 # Compression level of the power trace output log (0=no comp, 9=highest)
-steady_power_levels_enabled                    0 # produce a file for the steady power levels (1=On, 0=Off)
-steady_state_definition                  8:4 # allowed deviation:number of samples
-gpgpu_max_cycle                        0 # terminates gpu simulation early (0 = no limit)
-gpgpu_max_insn                         0 # terminates gpu simulation early (0 = no limit)
-gpgpu_max_cta                          0 # terminates gpu simulation early (0 = no limit)
-gpgpu_runtime_stat             5000000:0 # display runtime statistics such as dram utilization {<freq>:<flag>}
-liveness_message_freq                    1 # Minimum number of seconds between simulation liveness messages (0 = always print)
-gpgpu_flush_l1_cache                    0 # Flush L1 cache at the end of each kernel call
-gpgpu_flush_l2_cache                    0 # Flush L2 cache at the end of each kernel call
-gpgpu_deadlock_detect                    1 # Stop the simulation at deadlock (1=on (default), 0=off)
-gpgpu_ptx_instruction_classification                    0 # if enabled will classify ptx instruction types per kernel (Max 255 kernels now)
-gpgpu_ptx_sim_mode                     0 # Select between Performance (default) or Functional simulation (1)
-gpgpu_clock_domains 575.0:575.0:575.0:750.0 # Clock Domain Frequencies in MhZ {<Core Clock>:<ICNT Clock>:<L2 Clock>:<DRAM Clock>}
-gpgpu_max_concurrent_kernel                    8 # maximum kernels that can run concurrently on GPU
-gpgpu_cflog_interval                    0 # Interval between each snapshot in control flow logger
-visualizer_enabled                     0 # Turn on visualizer output (1=On, 0=Off)
-visualizer_outputfile                 NULL # Specifies the output log file for visualizer
-visualizer_zlevel                      6 # Compression level of the visualizer output log (0=no comp, 9=highest)
-trace_enabled                          0 # Turn on traces
-trace_components                    none # comma seperated list of traces to enable. Complete list found in trace_streams.tup. Default none
-trace_sampling_core                    0 # The core which is printed using CORE_DPRINTF. Default 0
-trace_sampling_memory_partition                   -1 # The memory partition which is printed using MEMPART_DPRINTF. Default -1 (i.e. all)
-enable_ptx_file_line_stats                    0 # Turn on PTX source line statistic profiling. (1 = On)
-ptx_line_stats_filename gpgpu_inst_stats.txt # Output file for PTX source line statistics.
-save_embedded_ptx                      0 # saves ptx files embedded in binary as <n>.ptx
-keep                                   0 # keep intermediate files created by GPGPU-Sim when interfacing with external programs
-gpgpu_ptx_save_converted_ptxplus                    1 # Saved converted ptxplus to a file
-ptx_opcode_latency_int         4,13,4,5,145 # Opcode latencies for integers <ADD,MAX,MUL,MAD,DIV>Default 1,1,19,25,145
-ptx_opcode_latency_fp          4,13,4,5,39 # Opcode latencies for single precision floating points <ADD,MAX,MUL,MAD,DIV>Default 1,1,1,1,30
-ptx_opcode_latency_dp         8,19,8,8,330 # Opcode latencies for double precision floating points <ADD,MAX,MUL,MAD,DIV>Default 8,8,8,8,335
-ptx_opcode_initiation_int            1,2,2,1,8 # Opcode initiation intervals for integers <ADD,MAX,MUL,MAD,DIV>Default 1,1,4,4,32
-ptx_opcode_initiation_fp            1,2,1,1,4 # Opcode initiation intervals for single precision floating points <ADD,MAX,MUL,MAD,DIV>Default 1,1,1,1,5
-ptx_opcode_initiation_dp         8,16,8,8,130 # Opcode initiation intervals for double precision floating points <ADD,MAX,MUL,MAD,DIV>Default 8,8,8,8,130
DRAM Timing Options:
nbk                                    16 # number of banks
CCD                                     2 # column to column delay
RRD                                     6 # minimal delay between activation of rows in different banks
RCD                                    12 # row to column delay
RAS                                    28 # time needed to activate row
RP                                     12 # time needed to precharge (deactivate) row
RC                                     40 # row cycle time
CDLR                                    5 # switching from write to read (changes tWTR)
WR                                     12 # last data-in to row precharge
CL                                     12 # CAS latency
WL                                      4 # Write latency
nbkgrp                                  4 # number of bank groups
CCDL                                    3 # column to column delay between accesses to different bank groups
RTPL                                    2 # read to precharge delay between accesses to different bank groups
Total number of memory sub partition = 12
addr_dec_mask[CHIP]  = 0000000000000000 	high:64 low:0
addr_dec_mask[BK]    = 000000000000e100 	high:16 low:8
addr_dec_mask[ROW]   = 000000000fff0000 	high:28 low:16
addr_dec_mask[COL]   = 0000000000001eff 	high:13 low:0
addr_dec_mask[BURST] = 000000000000003f 	high:6 low:0
sub_partition_id_mask = 0000000000000100
GPGPU-Sim uArch: clock freqs: 575000000.000000:575000000.000000:575000000.000000:750000000.000000
GPGPU-Sim uArch: clock periods: 0.00000000173913043478:0.00000000173913043478:0.00000000173913043478:0.00000000133333333333
*** Initializing Memory Statistics ***
GPGPU-Sim uArch: interconnect node map (shaderID+MemID to icntID)
GPGPU-Sim uArch: Memory nodes ID start from index: 14
GPGPU-Sim uArch:    0   1   2   3   4
GPGPU-Sim uArch:    5   6   7   8   9
GPGPU-Sim uArch:   10  11  12  13  14
GPGPU-Sim uArch:   15  16  17  18  19
GPGPU-Sim uArch:   20  21  22  23  24
GPGPU-Sim uArch:   25
GPGPU-Sim uArch: interconnect node reverse map (icntID to shaderID+MemID)
GPGPU-Sim uArch: Memory nodes start from ID: 14
GPGPU-Sim uArch:    0   1   2   3   4
GPGPU-Sim uArch:    5   6   7   8   9
GPGPU-Sim uArch:   10  11  12  13  14
GPGPU-Sim uArch:   15  16  17  18  19
GPGPU-Sim uArch:   20  21  22  23  24
GPGPU-Sim uArch:   25
59edd4fa28fd57f061e4889c8c18d781  /home/vishwesh/Desktop/Register_Sharing_Pbm/ispass2009-benchmarks/bin/release/MUM
GPGPU-Sim uArch: performance model initialization complete.
GPGPU-Sim PTX: __cudaRegisterFatBinary, fat_cubin_handle = 1, filename=mummergpu.cu
self exe links to: /home/vishwesh/Desktop/Register_Sharing_Pbm/ispass2009-benchmarks/bin/release/MUM
Running md5sum using "md5sum /home/vishwesh/Desktop/Register_Sharing_Pbm/ispass2009-benchmarks/bin/release/MUM "
Running cuobjdump using "$CUDA_INSTALL_PATH/bin/cuobjdump -ptx -elf -sass /home/vishwesh/Desktop/Register_Sharing_Pbm/ispass2009-benchmarks/bin/release/MUM > _cuobjdump_complete_output_OHAlbK"
Parsing file _cuobjdump_complete_output_OHAlbK
######### cuobjdump parser ########
## Adding new section PTX
Adding ptx filename: _cuobjdump_1.ptx
Adding arch: sm_10
Adding identifier: mummergpu.cu
## Adding new section ELF
Adding arch: sm_10
Adding identifier: mummergpu.cu
## Adding new section ELF
Adding arch: sm_20
Adding identifier: mummergpu.cu
## Adding new section PTX
Adding ptx filename: _cuobjdump_2.ptx
Adding arch: sm_20
Adding identifier: mummergpu.cu
Done parsing!!!
GPGPU-Sim: WARNING: Capability >= 20 are not supported in PTXPlus
	Setting forced_max_capability to 19
GPGPU-Sim PTX: __cudaRegisterFunction _Z17mummergpuRCKernelP10MatchCoordPcPKiS3_ii : hostFun 0x0x4095f0, fat_cubin_handle = 1
GPGPU-Sim PTX: converting EMBEDDED .ptx file to ptxplus 
GPGPU-Sim PTX: DONE converting EMBEDDED .ptx file to ptxplus 
GPGPU-Sim PTX: encountered texture directive nodetex.
GPGPU-Sim PTX: encountered texture directive childrentex.
GPGPU-Sim PTX: encountered texture directive reftex.
GPGPU-Sim PTX: allocating constant region for "constant1_Z15mummergpuKernelP10MatchCoordPcPKiS3_ii" from 0x100 to 0x12c (global memory space) 1
GPGPU-Sim PTX: allocating constant region for "constant1_Z17mummergpuRCKernelP10MatchCoordPcPKiS3_ii" from 0x180 to 0x1b0 (global memory space) 2
GPGPU-Sim PTX: allocating local region for "l1" from 0x0 to 0x0 (local memory space)
GPGPU-Sim PTX: allocating local region for "l2" from 0x0 to 0x0 (local memory space)
GPGPU-Sim PTX: PTX uses two scalar type intruction with literal operand.
GPGPU-Sim PTX: instruction assembly for function '_Z17mummergpuRCKernelP10MatchCoordPcPKiS3_ii'...   done.
GPGPU-Sim PTX: finding reconvergence points for '_Z17mummergpuRCKernelP10MatchCoordPcPKiS3_ii'...
GPGPU-Sim PTX: Warning detected predicated return/exit.
GPGPU-Sim PTX: Warning detected predicated return/exit.
GPGPU-Sim PTX: Finding dominators for '_Z17mummergpuRCKernelP10MatchCoordPcPKiS3_ii'...
GPGPU-Sim PTX: Finding immediate dominators for '_Z17mummergpuRCKernelP10MatchCoordPcPKiS3_ii'...
GPGPU-Sim PTX: Finding postdominators for '_Z17mummergpuRCKernelP10MatchCoordPcPKiS3_ii'...
GPGPU-Sim PTX: Finding immediate postdominators for '_Z17mummergpuRCKernelP10MatchCoordPcPKiS3_ii'...
GPGPU-Sim PTX: pre-decoding instructions for '_Z17mummergpuRCKernelP10MatchCoordPcPKiS3_ii'...
GPGPU-Sim PTX: reconvergence points for _Z17mummergpuRCKernelP10MatchCoordPcPKiS3_ii...
GPGPU-Sim PTX:  1 (potential) branch divergence @  PC=0x124 (_1.ptx:84) @$p0.ne bra l0x00000170;
GPGPU-Sim PTX:    immediate post dominator      @  PC=0x1bc (_1.ptx:103) l0x000001b8: set.eq.s32.s32 $p0/$o127, $r0, $r124;
GPGPU-Sim PTX:  2 (potential) branch divergence @  PC=0x134 (_1.ptx:86) @$p0.ne bra l0x00000180;
GPGPU-Sim PTX:    immediate post dominator      @  PC=0x1bc (_1.ptx:103) l0x000001b8: set.eq.s32.s32 $p0/$o127, $r0, $r124;
GPGPU-Sim PTX:  3 (potential) branch divergence @  PC=0x144 (_1.ptx:88) @$p0.ne bra l0x00000190;
GPGPU-Sim PTX:    immediate post dominator      @  PC=0x1bc (_1.ptx:103) l0x000001b8: set.eq.s32.s32 $p0/$o127, $r0, $r124;
GPGPU-Sim PTX:  4 (potential) branch divergence @  PC=0x154 (_1.ptx:90) @$p0.ne bra l0x000001a0;
GPGPU-Sim PTX:    immediate post dominator      @  PC=0x1bc (_1.ptx:103) l0x000001b8: set.eq.s32.s32 $p0/$o127, $r0, $r124;
GPGPU-Sim PTX:  5 (potential) branch divergence @  PC=0x164 (_1.ptx:92) @$p0.ne bra l0x000001b0;
GPGPU-Sim PTX:    immediate post dominator      @  PC=0x1bc (_1.ptx:103) l0x000001b8: set.eq.s32.s32 $p0/$o127, $r0, $r124;
GPGPU-Sim PTX:  6 (potential) branch divergence @  PC=0x16c (_1.ptx:93) bra l0x000001b8;
GPGPU-Sim PTX:    immediate post dominator      @  PC=0x1bc (_1.ptx:103) l0x000001b8: set.eq.s32.s32 $p0/$o127, $r0, $r124;
GPGPU-Sim PTX:  7 (potential) branch divergence @  PC=0x17c (_1.ptx:95) bra l0x000001b8;
GPGPU-Sim PTX:    immediate post dominator      @  PC=0x1bc (_1.ptx:103) l0x000001b8: set.eq.s32.s32 $p0/$o127, $r0, $r124;
GPGPU-Sim PTX:  8 (potential) branch divergence @  PC=0x18c (_1.ptx:97) bra l0x000001b8;
GPGPU-Sim PTX:    immediate post dominator      @  PC=0x1bc (_1.ptx:103) l0x000001b8: set.eq.s32.s32 $p0/$o127, $r0, $r124;
GPGPU-Sim PTX:  9 (potential) branch divergence @  PC=0x19c (_1.ptx:99) bra l0x000001b8;
GPGPU-Sim PTX:    immediate post dominator      @  PC=0x1bc (_1.ptx:103) l0x000001b8: set.eq.s32.s32 $p0/$o127, $r0, $r124;
GPGPU-Sim PTX: 10 (potential) branch divergence @  PC=0x1ac (_1.ptx:101) bra l0x000001b8;
GPGPU-Sim PTX:    immediate post dominator      @  PC=0x1bc (_1.ptx:103) l0x000001b8: set.eq.s32.s32 $p0/$o127, $r0, $r124;
GPGPU-Sim PTX: 11 (potential) branch divergence @  PC=0x1d4 (_1.ptx:106) @$p0.ne bra l0x000006a8;
GPGPU-Sim PTX:    immediate post dominator      @  PC=0x76c (_1.ptx:289) l0x00000768: cvt.f32.u32 $r0, $r0;
GPGPU-Sim PTX: 12 (potential) branch divergence @  PC=0x21c (_1.ptx:115) @$p0.ne bra l0x00000260;
GPGPU-Sim PTX:    immediate post dominator      @  PC=0x294 (_1.ptx:130) l0x00000290: set.ne.u32.u32 $p0/$o127, $r2, $r124;
GPGPU-Sim PTX: 13 (potential) branch divergence @  PC=0x22c (_1.ptx:117) @$p0.ne bra l0x00000270;
GPGPU-Sim PTX:    immediate post dominator      @  PC=0x294 (_1.ptx:130) l0x00000290: set.ne.u32.u32 $p0/$o127, $r2, $r124;
GPGPU-Sim PTX: 14 (potential) branch divergence @  PC=0x23c (_1.ptx:119) @$p0.ne bra l0x00000280;
GPGPU-Sim PTX:    immediate post dominator      @  PC=0x294 (_1.ptx:130) l0x00000290: set.ne.u32.u32 $p0/$o127, $r2, $r124;
GPGPU-Sim PTX: 15 (potential) branch divergence @  PC=0x24c (_1.ptx:121) @$p0.ne bra l0x00000288;
GPGPU-Sim PTX:    immediate post dominator      @  PC=0x294 (_1.ptx:130) l0x00000290: set.ne.u32.u32 $p0/$o127, $r2, $r124;
GPGPU-Sim PTX: 16 (potential) branch divergence @  PC=0x25c (_1.ptx:123) bra l0x00000290;
GPGPU-Sim PTX:    immediate post dominator      @  PC=0x294 (_1.ptx:130) l0x00000290: set.ne.u32.u32 $p0/$o127, $r2, $r124;
GPGPU-Sim PTX: 17 (potential) branch divergence @  PC=0x26c (_1.ptx:125) bra l0x00000290;
GPGPU-Sim PTX:    immediate post dominator      @  PC=0x294 (_1.ptx:130) l0x00000290: set.ne.u32.u32 $p0/$o127, $r2, $r124;
GPGPU-Sim PTX: 18 (potential) branch divergence @  PC=0x27c (_1.ptx:127) bra l0x00000290;
GPGPU-Sim PTX:    immediate post dominator      @  PC=0x294 (_1.ptx:130) l0x00000290: set.ne.u32.u32 $p0/$o127, $r2, $r124;
GPGPU-Sim PTX: 19 (potential) branch divergence @  PC=0x284 (_1.ptx:128) l0x00000280: bra l0x00000290;
GPGPU-Sim PTX:    immediate post dominator      @  PC=0x294 (_1.ptx:130) l0x00000290: set.ne.u32.u32 $p0/$o127, $r2, $r124;
GPGPU-Sim PTX: 20 (potential) branch divergence @  PC=0x29c (_1.ptx:131) @$p0.ne bra l0x00000338;
GPGPU-Sim PTX:    immediate post dominator      @  PC=0x76c (_1.ptx:289) l0x00000768: cvt.f32.u32 $r0, $r0;
GPGPU-Sim PTX: 21 (potential) branch divergence @  PC=0x2c4 (_1.ptx:137) @$p0.ne bra l0x00000318;
GPGPU-Sim PTX:    immediate post dominator      @  PC=0x31c (_1.ptx:148) l0x00000318: nop;
GPGPU-Sim PTX: 22 (potential) branch divergence @  PC=0x334 (_1.ptx:151) bra l0x00000768;
GPGPU-Sim PTX:    immediate post dominator      @  PC=0x76c (_1.ptx:289) l0x00000768: cvt.f32.u32 $r0, $r0;
GPGPU-Sim PTX: 23 (potential) branch divergence @  PC=0x38c (_1.ptx:162) @$p0.ne bra l0x000003f0;
GPGPU-Sim PTX:    immediate post dominator      @  PC=0x404 (_1.ptx:179) l0x00000400: add.u32 $r0, $r4, -$r8;
GPGPU-Sim PTX: 24 (potential) branch divergence @  PC=0x3ac (_1.ptx:166) @$p0.ne bra l0x000003d8;
GPGPU-Sim PTX:    immediate post dominator      @  PC=0x404 (_1.ptx:179) l0x00000400: add.u32 $r0, $r4, -$r8;
GPGPU-Sim PTX: 25 (potential) branch divergence @  PC=0x3d4 (_1.ptx:172) bra l0x00000400;
GPGPU-Sim PTX:    immediate post dominator      @  PC=0x404 (_1.ptx:179) l0x00000400: add.u32 $r0, $r4, -$r8;
GPGPU-Sim PTX: 26 (potential) branch divergence @  PC=0x3ec (_1.ptx:176) bra l0x00000400;
GPGPU-Sim PTX:    immediate post dominator      @  PC=0x404 (_1.ptx:179) l0x00000400: add.u32 $r0, $r4, -$r8;
GPGPU-Sim PTX: 27 (potential) branch divergence @  PC=0x43c (_1.ptx:186) @$p0.ne bra l0x00000488;
GPGPU-Sim PTX:    immediate post dominator      @  PC=0x4d4 (_1.ptx:205) l0x000004d0: set.lt.s32.s32 $p1/$o127, $r3, $r13;
GPGPU-Sim PTX: 28 (potential) branch divergence @  PC=0x44c (_1.ptx:188) @$p0.ne bra l0x00000498;
GPGPU-Sim PTX:    immediate post dominator      @  PC=0x4d4 (_1.ptx:205) l0x000004d0: set.lt.s32.s32 $p1/$o127, $r3, $r13;
GPGPU-Sim PTX: 29 (potential) branch divergence @  PC=0x45c (_1.ptx:190) @$p0.ne bra l0x000004a8;
GPGPU-Sim PTX:    immediate post dominator      @  PC=0x4d4 (_1.ptx:205) l0x000004d0: set.lt.s32.s32 $p1/$o127, $r3, $r13;
GPGPU-Sim PTX: 30 (potential) branch divergence @  PC=0x46c (_1.ptx:192) @$p0.ne bra l0x000004b8;
GPGPU-Sim PTX:    immediate post dominator      @  PC=0x4d4 (_1.ptx:205) l0x000004d0: set.lt.s32.s32 $p1/$o127, $r3, $r13;
GPGPU-Sim PTX: 31 (potential) branch divergence @  PC=0x47c (_1.ptx:194) @$p0.ne bra l0x000004c8;
GPGPU-Sim PTX:    immediate post dominator      @  PC=0x4d4 (_1.ptx:205) l0x000004d0: set.lt.s32.s32 $p1/$o127, $r3, $r13;
GPGPU-Sim PTX: 32 (potential) branch divergence @  PC=0x484 (_1.ptx:195) bra l0x000004d0;
GPGPU-Sim PTX:    immediate post dominator      @  PC=0x4d4 (_1.ptx:205) l0x000004d0: set.lt.s32.s32 $p1/$o127, $r3, $r13;
GPGPU-Sim PTX: 33 (potential) branch divergence @  PC=0x494 (_1.ptx:197) bra l0x000004d0;
GPGPU-Sim PTX:    immediate post dominator      @  PC=0x4d4 (_1.ptx:205) l0x000004d0: set.lt.s32.s32 $p1/$o127, $r3, $r13;
GPGPU-Sim PTX: 34 (potential) branch divergence @  PC=0x4a4 (_1.ptx:199) bra l0x000004d0;
GPGPU-Sim PTX:    immediate post dominator      @  PC=0x4d4 (_1.ptx:205) l0x000004d0: set.lt.s32.s32 $p1/$o127, $r3, $r13;
GPGPU-Sim PTX: 35 (potential) branch divergence @  PC=0x4b4 (_1.ptx:201) bra l0x000004d0;
GPGPU-Sim PTX:    immediate post dominator      @  PC=0x4d4 (_1.ptx:205) l0x000004d0: set.lt.s32.s32 $p1/$o127, $r3, $r13;
GPGPU-Sim PTX: 36 (potential) branch divergence @  PC=0x4c4 (_1.ptx:203) bra l0x000004d0;
GPGPU-Sim PTX:    immediate post dominator      @  PC=0x4d4 (_1.ptx:205) l0x000004d0: set.lt.s32.s32 $p1/$o127, $r3, $r13;
GPGPU-Sim PTX: 37 (potential) branch divergence @  PC=0x4f4 (_1.ptx:209) @$p1.ne bra l0x00000688;
GPGPU-Sim PTX:    immediate post dominator      @  PC=0x76c (_1.ptx:289) l0x00000768: cvt.f32.u32 $r0, $r0;
GPGPU-Sim PTX: 38 (potential) branch divergence @  PC=0x4fc (_1.ptx:210) @$p0.eq bra l0x00000688;
GPGPU-Sim PTX:    immediate post dominator      @  PC=0x76c (_1.ptx:289) l0x00000768: cvt.f32.u32 $r0, $r0;
GPGPU-Sim PTX: 39 (potential) branch divergence @  PC=0x55c (_1.ptx:222) @$p0.ne bra l0x00000570;
GPGPU-Sim PTX:    immediate post dominator      @  PC=0x76c (_1.ptx:289) l0x00000768: cvt.f32.u32 $r0, $r0;
GPGPU-Sim PTX: 40 (potential) branch divergence @  PC=0x56c (_1.ptx:224) bra l0x000006c0;
GPGPU-Sim PTX:    immediate post dominator      @  PC=0x6c4 (_1.ptx:268) l0x000006c0: set.ge.s32.s32 $p0/$o127, s[0x0034], $r8;
GPGPU-Sim PTX: 41 (potential) branch divergence @  PC=0x5b4 (_1.ptx:234) @$p0.ne bra l0x00000600;
GPGPU-Sim PTX:    immediate post dominator      @  PC=0x64c (_1.ptx:253) l0x00000648: set.lt.s32.s32 $p0/$o127, $r3, $r13;
GPGPU-Sim PTX: 42 (potential) branch divergence @  PC=0x5c4 (_1.ptx:236) @$p0.ne bra l0x00000610;
GPGPU-Sim PTX:    immediate post dominator      @  PC=0x64c (_1.ptx:253) l0x00000648: set.lt.s32.s32 $p0/$o127, $r3, $r13;
GPGPU-Sim PTX: 43 (potential) branch divergence @  PC=0x5d4 (_1.ptx:238) @$p0.ne bra l0x00000620;
GPGPU-Sim PTX:    immediate post dominator      @  PC=0x64c (_1.ptx:253) l0x00000648: set.lt.s32.s32 $p0/$o127, $r3, $r13;
GPGPU-Sim PTX: 44 (potential) branch divergence @  PC=0x5e4 (_1.ptx:240) @$p0.ne bra l0x00000630;
GPGPU-Sim PTX:    immediate post dominator      @  PC=0x64c (_1.ptx:253) l0x00000648: set.lt.s32.s32 $p0/$o127, $r3, $r13;
GPGPU-Sim PTX: 45 (potential) branch divergence @  PC=0x5f4 (_1.ptx:242) @$p0.ne bra l0x00000640;
GPGPU-Sim PTX:    immediate post dominator      @  PC=0x64c (_1.ptx:253) l0x00000648: set.lt.s32.s32 $p0/$o127, $r3, $r13;
GPGPU-Sim PTX: 46 (potential) branch divergence @  PC=0x5fc (_1.ptx:243) bra l0x00000648;
GPGPU-Sim PTX:    immediate post dominator      @  PC=0x64c (_1.ptx:253) l0x00000648: set.lt.s32.s32 $p0/$o127, $r3, $r13;
GPGPU-Sim PTX: 47 (potential) branch divergence @  PC=0x60c (_1.ptx:245) bra l0x00000648;
GPGPU-Sim PTX:    immediate post dominator      @  PC=0x64c (_1.ptx:253) l0x00000648: set.lt.s32.s32 $p0/$o127, $r3, $r13;
GPGPU-Sim PTX: 48 (potential) branch divergence @  PC=0x61c (_1.ptx:247) bra l0x00000648;
GPGPU-Sim PTX:    immediate post dominator      @  PC=0x64c (_1.ptx:253) l0x00000648: set.lt.s32.s32 $p0/$o127, $r3, $r13;
GPGPU-Sim PTX: 49 (potential) branch divergence @  PC=0x62c (_1.ptx:249) bra l0x00000648;
GPGPU-Sim PTX:    immediate post dominator      @  PC=0x64c (_1.ptx:253) l0x00000648: set.lt.s32.s32 $p0/$o127, $r3, $r13;
GPGPU-Sim PTX: 50 (potential) branch divergence @  PC=0x63c (_1.ptx:251) bra l0x00000648;
GPGPU-Sim PTX:    immediate post dominator      @  PC=0x64c (_1.ptx:253) l0x00000648: set.lt.s32.s32 $p0/$o127, $r3, $r13;
GPGPU-Sim PTX: 51 (potential) branch divergence @  PC=0x65c (_1.ptx:255) @$p0.ne bra l0x00000680;
GPGPU-Sim PTX:    immediate post dominator      @  PC=0x76c (_1.ptx:289) l0x00000768: cvt.f32.u32 $r0, $r0;
GPGPU-Sim PTX: 52 (potential) branch divergence @  PC=0x674 (_1.ptx:258) @$p1.ne bra l0x00000500;
GPGPU-Sim PTX:    immediate post dominator      @  PC=0x76c (_1.ptx:289) l0x00000768: cvt.f32.u32 $r0, $r0;
GPGPU-Sim PTX: 53 (potential) branch divergence @  PC=0x67c (_1.ptx:259) bra l0x00000688;
GPGPU-Sim PTX:    immediate post dominator      @  PC=0x68c (_1.ptx:261) l0x00000688: nop;
GPGPU-Sim PTX: 54 (potential) branch divergence @  PC=0x694 (_1.ptx:262) @$p0.ne bra l0x000001d8;
GPGPU-Sim PTX:    immediate post dominator      @  PC=0x76c (_1.ptx:289) l0x00000768: cvt.f32.u32 $r0, $r0;
GPGPU-Sim PTX: 55 (potential) branch divergence @  PC=0x6a4 (_1.ptx:264) bra l0x000006c0;
GPGPU-Sim PTX:    immediate post dominator      @  PC=0x6c4 (_1.ptx:268) l0x000006c0: set.ge.s32.s32 $p0/$o127, s[0x0034], $r8;
GPGPU-Sim PTX: 56 (potential) branch divergence @  PC=0x6dc (_1.ptx:271) @$p0.ne bra l0x00000740;
GPGPU-Sim PTX:    immediate post dominator      @  PC=0x744 (_1.ptx:284) l0x00000740: add.u32 $r1, -$r9, $r8;
GPGPU-Sim PTX: 57 (potential) branch divergence @  PC=0x764 (_1.ptx:288) bra l0x00000768;
GPGPU-Sim PTX:    immediate post dominator      @  PC=0x76c (_1.ptx:289) l0x00000768: cvt.f32.u32 $r0, $r0;
GPGPU-Sim PTX: 58 (potential) branch divergence @  PC=0x7ac (_1.ptx:297) @$p0.ne bra l0x000000b8;
GPGPU-Sim PTX:    immediate post dominator      @  PC=0x7b4 (_1.ptx:298) nop;
GPGPU-Sim PTX: ... end of reconvergence points for _Z17mummergpuRCKernelP10MatchCoordPcPKiS3_ii
GPGPU-Sim PTX: ... done pre-decoding instructions for '_Z17mummergpuRCKernelP10MatchCoordPcPKiS3_ii'.
GPGPU-Sim PTX: instruction assembly for function '_Z15mummergpuKernelP10MatchCoordPcPKiS3_ii'...   done.
GPGPU-Sim PTX: finding reconvergence points for '_Z15mummergpuKernelP10MatchCoordPcPKiS3_ii'...
GPGPU-Sim PTX: Warning detected predicated return/exit.
GPGPU-Sim PTX: Warning detected predicated return/exit.
GPGPU-Sim PTX: Finding dominators for '_Z15mummergpuKernelP10MatchCoordPcPKiS3_ii'...
GPGPU-Sim PTX: Finding immediate dominators for '_Z15mummergpuKernelP10MatchCoordPcPKiS3_ii'...
GPGPU-Sim PTX: Finding postdominators for '_Z15mummergpuKernelP10MatchCoordPcPKiS3_ii'...
GPGPU-Sim PTX: Finding immediate postdominators for '_Z15mummergpuKernelP10MatchCoordPcPKiS3_ii'...
GPGPU-Sim PTX: pre-decoding instructions for '_Z15mummergpuKernelP10MatchCoordPcPKiS3_ii'...
GPGPU-Sim PTX: reconvergence points for _Z15mummergpuKernelP10MatchCoordPcPKiS3_ii...
GPGPU-Sim PTX:  1 (potential) branch divergence @  PC=0x8ec (_1.ptx:372) @$p0.eq bra l0x000004a0;
GPGPU-Sim PTX:    immediate post dominator      @  PC=0xd34 (_1.ptx:512) l0x00000568: cvt.f32.u32 $r0, $r0;
GPGPU-Sim PTX:  2 (potential) branch divergence @  PC=0x934 (_1.ptx:381) @$p0.ne bra l0x000001b0;
GPGPU-Sim PTX:    immediate post dominator      @  PC=0x9ac (_1.ptx:396) l0x000001e0: set.ne.u32.u32 $p0/$o127, $r2, $r124;
GPGPU-Sim PTX:  3 (potential) branch divergence @  PC=0x944 (_1.ptx:383) @$p0.ne bra l0x000001c0;
GPGPU-Sim PTX:    immediate post dominator      @  PC=0x9ac (_1.ptx:396) l0x000001e0: set.ne.u32.u32 $p0/$o127, $r2, $r124;
GPGPU-Sim PTX:  4 (potential) branch divergence @  PC=0x954 (_1.ptx:385) @$p0.ne bra l0x000001d0;
GPGPU-Sim PTX:    immediate post dominator      @  PC=0x9ac (_1.ptx:396) l0x000001e0: set.ne.u32.u32 $p0/$o127, $r2, $r124;
GPGPU-Sim PTX:  5 (potential) branch divergence @  PC=0x964 (_1.ptx:387) @$p0.ne bra l0x000001d8;
GPGPU-Sim PTX:    immediate post dominator      @  PC=0x9ac (_1.ptx:396) l0x000001e0: set.ne.u32.u32 $p0/$o127, $r2, $r124;
GPGPU-Sim PTX:  6 (potential) branch divergence @  PC=0x974 (_1.ptx:389) bra l0x000001e0;
GPGPU-Sim PTX:    immediate post dominator      @  PC=0x9ac (_1.ptx:396) l0x000001e0: set.ne.u32.u32 $p0/$o127, $r2, $r124;
GPGPU-Sim PTX:  7 (potential) branch divergence @  PC=0x984 (_1.ptx:391) bra l0x000001e0;
GPGPU-Sim PTX:    immediate post dominator      @  PC=0x9ac (_1.ptx:396) l0x000001e0: set.ne.u32.u32 $p0/$o127, $r2, $r124;
GPGPU-Sim PTX:  8 (potential) branch divergence @  PC=0x994 (_1.ptx:393) bra l0x000001e0;
GPGPU-Sim PTX:    immediate post dominator      @  PC=0x9ac (_1.ptx:396) l0x000001e0: set.ne.u32.u32 $p0/$o127, $r2, $r124;
GPGPU-Sim PTX:  9 (potential) branch divergence @  PC=0x99c (_1.ptx:394) l0x000001d0: bra l0x000001e0;
GPGPU-Sim PTX:    immediate post dominator      @  PC=0x9ac (_1.ptx:396) l0x000001e0: set.ne.u32.u32 $p0/$o127, $r2, $r124;
GPGPU-Sim PTX: 10 (potential) branch divergence @  PC=0x9b4 (_1.ptx:397) @$p0.ne bra l0x00000290;
GPGPU-Sim PTX:    immediate post dominator      @  PC=0xd34 (_1.ptx:512) l0x00000568: cvt.f32.u32 $r0, $r0;
GPGPU-Sim PTX: 11 (potential) branch divergence @  PC=0x9dc (_1.ptx:403) @$p0.ne bra l0x00000270;
GPGPU-Sim PTX:    immediate post dominator      @  PC=0xa3c (_1.ptx:416) l0x00000270: nop;
GPGPU-Sim PTX: 12 (potential) branch divergence @  PC=0xa54 (_1.ptx:419) bra l0x00000568;
GPGPU-Sim PTX:    immediate post dominator      @  PC=0xd34 (_1.ptx:512) l0x00000568: cvt.f32.u32 $r0, $r0;
GPGPU-Sim PTX: 13 (potential) branch divergence @  PC=0xaac (_1.ptx:430) @$p0.ne bra l0x00000350;
GPGPU-Sim PTX:    immediate post dominator      @  PC=0xb34 (_1.ptx:447) l0x00000368: add.u32 $r0, $r11, $r10;
GPGPU-Sim PTX: 14 (potential) branch divergence @  PC=0xb14 (_1.ptx:443) bra l0x00000368;
GPGPU-Sim PTX:    immediate post dominator      @  PC=0xb34 (_1.ptx:447) l0x00000368: add.u32 $r0, $r11, $r10;
GPGPU-Sim PTX: 15 (potential) branch divergence @  PC=0xb64 (_1.ptx:453) @$p1.ne bra l0x00000480;
GPGPU-Sim PTX:    immediate post dominator      @  PC=0xd34 (_1.ptx:512) l0x00000568: cvt.f32.u32 $r0, $r0;
GPGPU-Sim PTX: 16 (potential) branch divergence @  PC=0xb6c (_1.ptx:454) @$p0.eq bra l0x00000480;
GPGPU-Sim PTX:    immediate post dominator      @  PC=0xd34 (_1.ptx:512) l0x00000568: cvt.f32.u32 $r0, $r0;
GPGPU-Sim PTX: 17 (potential) branch divergence @  PC=0xbcc (_1.ptx:466) @$p0.ne bra l0x00000418;
GPGPU-Sim PTX:    immediate post dominator      @  PC=0xd34 (_1.ptx:512) l0x00000568: cvt.f32.u32 $r0, $r0;
GPGPU-Sim PTX: 18 (potential) branch divergence @  PC=0xbdc (_1.ptx:468) bra l0x000004b8;
GPGPU-Sim PTX:    immediate post dominator      @  PC=0xc84 (_1.ptx:489) l0x000004b8: set.ge.s32.s32 $p0/$o127, s[0x0034], $r5;
GPGPU-Sim PTX: 19 (potential) branch divergence @  PC=0xc1c (_1.ptx:476) @$p0.ne bra l0x00000478;
GPGPU-Sim PTX:    immediate post dominator      @  PC=0xd34 (_1.ptx:512) l0x00000568: cvt.f32.u32 $r0, $r0;
GPGPU-Sim PTX: 20 (potential) branch divergence @  PC=0xc34 (_1.ptx:479) @$p1.ne bra l0x000003a8;
GPGPU-Sim PTX:    immediate post dominator      @  PC=0xd34 (_1.ptx:512) l0x00000568: cvt.f32.u32 $r0, $r0;
GPGPU-Sim PTX: 21 (potential) branch divergence @  PC=0xc3c (_1.ptx:480) bra l0x00000480;
GPGPU-Sim PTX:    immediate post dominator      @  PC=0xc4c (_1.ptx:482) l0x00000480: nop;
GPGPU-Sim PTX: 22 (potential) branch divergence @  PC=0xc54 (_1.ptx:483) @$p0.ne bra l0x00000128;
GPGPU-Sim PTX:    immediate post dominator      @  PC=0xd34 (_1.ptx:512) l0x00000568: cvt.f32.u32 $r0, $r0;
GPGPU-Sim PTX: 23 (potential) branch divergence @  PC=0xc64 (_1.ptx:485) bra l0x000004b8;
GPGPU-Sim PTX:    immediate post dominator      @  PC=0xc84 (_1.ptx:489) l0x000004b8: set.ge.s32.s32 $p0/$o127, s[0x0034], $r5;
GPGPU-Sim PTX: 24 (potential) branch divergence @  PC=0xc9c (_1.ptx:492) @$p0.ne bra l0x00000540;
GPGPU-Sim PTX:    immediate post dominator      @  PC=0xd0c (_1.ptx:507) l0x00000540: add.u32 $r2, -$r6, $r5;
GPGPU-Sim PTX: 25 (potential) branch divergence @  PC=0xd2c (_1.ptx:511) bra l0x00000568;
GPGPU-Sim PTX:    immediate post dominator      @  PC=0xd34 (_1.ptx:512) l0x00000568: cvt.f32.u32 $r0, $r0;
GPGPU-Sim PTX: 26 (potential) branch divergence @  PC=0xd6c (_1.ptx:519) @$p0.ne bra l0x000000c0;
GPGPU-Sim PTX:    immediate post dominator      @  PC=0xd74 (_1.ptx:520) nop;
GPGPU-Sim PTX: ... end of reconvergence points for _Z15mummergpuKernelP10MatchCoordPcPKiS3_ii
GPGPU-Sim PTX: ... done pre-decoding instructions for '_Z15mummergpuKernelP10MatchCoordPcPKiS3_ii'.
GPGPU-Sim PTX: finished parsing EMBEDDED .ptx file _1.ptx
Adding _cuobjdump_1.ptx with cubin handle 1
GPGPU-Sim PTX: extracting embedded .ptx to temporary file "_ptx_os21AA"
Running: cat _ptx_os21AA | sed 's/.version 1.5/.version 1.4/' | sed 's/, texmode_independent//' | sed 's/\(\.extern \.const\[1\] .b8 \w\+\)\[\]/\1\[1\]/' | sed 's/const\[.\]/const\[0\]/g' > _ptx2_wwZK0q
GPGPU-Sim PTX: generating ptxinfo using "$CUDA_INSTALL_PATH/bin/ptxas --gpu-name=sm_20 -v _ptx2_wwZK0q --output-file  /dev/null 2> _ptx_os21AAinfo"
GPGPU-Sim PTX: Kernel '_Z17mummergpuRCKernelP10MatchCoordPcPKiS3_ii' : regs=18, lmem=0, smem=0, cmem=72
GPGPU-Sim PTX: Kernel '_Z15mummergpuKernelP10MatchCoordPcPKiS3_ii' : regs=26, lmem=0, smem=0, cmem=72
GPGPU-Sim PTX: removing ptxinfo using "rm -f _ptx_os21AA _ptx2_wwZK0q _ptx_os21AAinfo"
GPGPU-Sim PTX: loading globals with explicit initializers... 
GPGPU-Sim PTX: finished loading globals (0 bytes total).
GPGPU-Sim PTX: loading constants with explicit initializers...  done.
GPGPU-Sim PTX: __cudaRegisterFunction _Z15mummergpuKernelP10MatchCoordPcPKiS3_ii : hostFun 0x0x4096e0, fat_cubin_handle = 1
GPGPU-Sim PTX: in __cudaRegisterTexture:
GPGPU-Sim PTX:   int dim = 2
GPGPU-Sim PTX:   int norm = 0
GPGPU-Sim PTX:   int ext = 0
GPGPU-Sim PTX:   Execution warning: Not finished implementing "void __cudaRegisterTexture(void**, const textureReference*, const void**, const char*, int, int, int)"
GPGPU-Sim PTX: in __cudaRegisterTexture:
GPGPU-Sim PTX:   int dim = 2
GPGPU-Sim PTX:   int norm = 0
GPGPU-Sim PTX:   int ext = 0
GPGPU-Sim PTX:   Execution warning: Not finished implementing "void __cudaRegisterTexture(void**, const textureReference*, const void**, const char*, int, int, int)"
GPGPU-Sim PTX: in __cudaRegisterTexture:
GPGPU-Sim PTX:   int dim = 2
GPGPU-Sim PTX:   int norm = 0
GPGPU-Sim PTX:   int ext = 0
GPGPU-Sim PTX:   Execution warning: Not finished implementing "void __cudaRegisterTexture(void**, const textureReference*, const void**, const char*, int, int, int)"
GPGPU-Sim PTX: cudaMallocArray: devPtr32 = -2145733120
GPGPU-Sim PTX: cudaMemcpyToArray
GPGPU-Sim PTX: in cudaBindTextureToArray: 0x637aa0 0x1ddeb90
GPGPU-Sim PTX:   devPtr32 = 801ab600
GPGPU-Sim PTX:   Name corresponding to textureReference: reftex
GPGPU-Sim PTX:   Texture Normalized? = 0
GPGPU-Sim PTX:   texel size = 1
GPGPU-Sim PTX:   texture cache linesize = 128
GPGPU-Sim PTX:   Tx = 16; Ty = 8, Tx_numbits = 4, Ty_numbits = 3
GPGPU-Sim PTX:   Texel size = 1 bytes; texel_size_numbits = 0
GPGPU-Sim PTX:   Binding texture to array starting at devPtr32 = 0x801ab600
GPGPU-Sim PTX:   Texel size = 1 bytes
GPGPU-Sim PTX: cudaMallocArray: devPtr32 = -2144029184
GPGPU-Sim PTX: cudaMemcpyToArray
GPGPU-Sim PTX: in cudaBindTextureToArray: 0x6379a0 0x1bf4080
GPGPU-Sim PTX:   devPtr32 = 8034b600
GPGPU-Sim PTX:   Name corresponding to textureReference: nodetex
GPGPU-Sim PTX:   Texture Normalized? = 0
GPGPU-Sim PTX:   texel size = 16
GPGPU-Sim PTX:   texture cache linesize = 128
GPGPU-Sim PTX:   Tx = 4; Ty = 2, Tx_numbits = 2, Ty_numbits = 1
GPGPU-Sim PTX:   Texel size = 16 bytes; texel_size_numbits = 4
GPGPU-Sim PTX:   Binding texture to array starting at devPtr32 = 0x8034b600
GPGPU-Sim PTX:   Texel size = 16 bytes
GPGPU-Sim PTX: cudaMallocArray: devPtr32 = -2104838656
GPGPU-Sim PTX: cudaMemcpyToArray
GPGPU-Sim PTX: in cudaBindTextureToArray: 0x637a20 0x1ddec70
GPGPU-Sim PTX:   devPtr32 = 828ab600
GPGPU-Sim PTX:   Name corresponding to textureReference: childrentex
GPGPU-Sim PTX:   Texture Normalized? = 0
GPGPU-Sim PTX:   texel size = 16
GPGPU-Sim PTX:   texture cache linesize = 128
GPGPU-Sim PTX:   Tx = 4; Ty = 2, Tx_numbits = 2, Ty_numbits = 1
GPGPU-Sim PTX:   Texel size = 16 bytes; texel_size_numbits = 4
GPGPU-Sim PTX:   Binding texture to array starting at devPtr32 = 0x828ab600
GPGPU-Sim PTX:   Texel size = 16 bytes

GPGPU-Sim PTX: cudaLaunch for 0x0x4096e0 (mode=performance simulation) on stream 0
GPGPU-Sim PTX: pushing kernel '_Z15mummergpuKernelP10MatchCoordPcPKiS3_ii' to stream 0, gridDim= (196,1,1) blockDim = (256,1,1) 
kernel '_Z15mummergpuKernelP10MatchCoordPcPKiS3_ii' transfer to GPU hardware scheduler
GPGPU-Sim uArch: Shader 1 bind to kernel 1 '_Z15mummergpuKernelP10MatchCoordPcPKiS3_ii'
GPGPU-Sim uArch: CTA/core = 6, limited by: threads
Shared mode is : 1
GPGPU-Sim uArch: core:  1, cta: 0 initialized @(1,0)
GPGPU-Sim uArch: Shader 2 bind to kernel 1 '_Z15mummergpuKernelP10MatchCoordPcPKiS3_ii'
Shared mode is : 1
GPGPU-Sim uArch: core:  2, cta: 0 initialized @(1,0)
GPGPU-Sim uArch: Shader 3 bind to kernel 1 '_Z15mummergpuKernelP10MatchCoordPcPKiS3_ii'
Shared mode is : 1
GPGPU-Sim uArch: core:  3, cta: 0 initialized @(1,0)
GPGPU-Sim uArch: Shader 4 bind to kernel 1 '_Z15mummergpuKernelP10MatchCoordPcPKiS3_ii'
Shared mode is : 1
GPGPU-Sim uArch: core:  4, cta: 0 initialized @(1,0)
GPGPU-Sim uArch: Shader 5 bind to kernel 1 '_Z15mummergpuKernelP10MatchCoordPcPKiS3_ii'
Shared mode is : 1
GPGPU-Sim uArch: core:  5, cta: 0 initialized @(1,0)
GPGPU-Sim uArch: Shader 6 bind to kernel 1 '_Z15mummergpuKernelP10MatchCoordPcPKiS3_ii'
Shared mode is : 1
GPGPU-Sim uArch: core:  6, cta: 0 initialized @(1,0)
GPGPU-Sim uArch: Shader 7 bind to kernel 1 '_Z15mummergpuKernelP10MatchCoordPcPKiS3_ii'
Shared mode is : 1
GPGPU-Sim uArch: core:  7, cta: 0 initialized @(1,0)
GPGPU-Sim uArch: Shader 8 bind to kernel 1 '_Z15mummergpuKernelP10MatchCoordPcPKiS3_ii'
Shared mode is : 1
GPGPU-Sim uArch: core:  8, cta: 0 initialized @(1,0)
GPGPU-Sim uArch: Shader 9 bind to kernel 1 '_Z15mummergpuKernelP10MatchCoordPcPKiS3_ii'
Shared mode is : 1
GPGPU-Sim uArch: core:  9, cta: 0 initialized @(1,0)
GPGPU-Sim uArch: Shader 10 bind to kernel 1 '_Z15mummergpuKernelP10MatchCoordPcPKiS3_ii'
Shared mode is : 1
GPGPU-Sim uArch: core: 10, cta: 0 initialized @(1,0)
GPGPU-Sim uArch: Shader 11 bind to kernel 1 '_Z15mummergpuKernelP10MatchCoordPcPKiS3_ii'
Shared mode is : 1
GPGPU-Sim uArch: core: 11, cta: 0 initialized @(1,0)
GPGPU-Sim uArch: Shader 12 bind to kernel 1 '_Z15mummergpuKernelP10MatchCoordPcPKiS3_ii'
Shared mode is : 1
GPGPU-Sim uArch: core: 12, cta: 0 initialized @(1,0)
GPGPU-Sim uArch: Shader 13 bind to kernel 1 '_Z15mummergpuKernelP10MatchCoordPcPKiS3_ii'
Shared mode is : 1
GPGPU-Sim uArch: core: 13, cta: 0 initialized @(1,0)
GPGPU-Sim uArch: Shader 0 bind to kernel 1 '_Z15mummergpuKernelP10MatchCoordPcPKiS3_ii'
Shared mode is : 1
GPGPU-Sim uArch: core:  0, cta: 0 initialized @(1,0)
Shared mode is : 1
GPGPU-Sim uArch: core:  1, cta: 1 initialized @(2,0)
Shared mode is : 1
GPGPU-Sim uArch: core:  2, cta: 1 initialized @(2,0)
Shared mode is : 1
GPGPU-Sim uArch: core:  3, cta: 1 initialized @(2,0)
Shared mode is : 1
GPGPU-Sim uArch: core:  4, cta: 1 initialized @(2,0)
Shared mode is : 1
GPGPU-Sim uArch: core:  5, cta: 1 initialized @(2,0)
Shared mode is : 1
GPGPU-Sim uArch: core:  6, cta: 1 initialized @(2,0)
Shared mode is : 1
GPGPU-Sim uArch: core:  7, cta: 1 initialized @(2,0)
Shared mode is : 1
GPGPU-Sim uArch: core:  8, cta: 1 initialized @(2,0)
Shared mode is : 1
GPGPU-Sim uArch: core:  9, cta: 1 initialized @(2,0)
Shared mode is : 1
GPGPU-Sim uArch: core: 10, cta: 1 initialized @(2,0)
Shared mode is : 1
GPGPU-Sim uArch: core: 11, cta: 1 initialized @(2,0)
Shared mode is : 1
GPGPU-Sim uArch: core: 12, cta: 1 initialized @(2,0)
Shared mode is : 1
GPGPU-Sim uArch: core: 13, cta: 1 initialized @(2,0)
Shared mode is : 1
GPGPU-Sim uArch: core:  0, cta: 1 initialized @(2,0)
Shared mode is : 1
GPGPU-Sim uArch: core:  1, cta: 2 initialized @(3,0)
Shared mode is : 1
GPGPU-Sim uArch: core:  2, cta: 2 initialized @(3,0)
Shared mode is : 1
GPGPU-Sim uArch: core:  3, cta: 2 initialized @(3,0)
Shared mode is : 1
GPGPU-Sim uArch: core:  4, cta: 2 initialized @(3,0)
Shared mode is : 1
GPGPU-Sim uArch: core:  5, cta: 2 initialized @(3,0)
Shared mode is : 1
GPGPU-Sim uArch: core:  6, cta: 2 initialized @(3,0)
Shared mode is : 1
GPGPU-Sim uArch: core:  7, cta: 2 initialized @(3,0)
Shared mode is : 1
GPGPU-Sim uArch: core:  8, cta: 2 initialized @(3,0)
Shared mode is : 1
GPGPU-Sim uArch: core:  9, cta: 2 initialized @(3,0)
Shared mode is : 1
GPGPU-Sim uArch: core: 10, cta: 2 initialized @(3,0)
Shared mode is : 1
GPGPU-Sim uArch: core: 11, cta: 2 initialized @(3,0)
Shared mode is : 1
GPGPU-Sim uArch: core: 12, cta: 2 initialized @(3,0)
Shared mode is : 1
GPGPU-Sim uArch: core: 13, cta: 2 initialized @(3,0)
Shared mode is : 1
GPGPU-Sim uArch: core:  0, cta: 2 initialized @(3,0)
Shared mode is : 1
GPGPU-Sim uArch: core:  1, cta: 3 initialized @(4,0)
Shared mode is : 1
GPGPU-Sim uArch: core:  2, cta: 3 initialized @(4,0)
Shared mode is : 1
GPGPU-Sim uArch: core:  3, cta: 3 initialized @(4,0)
Shared mode is : 1
GPGPU-Sim uArch: core:  4, cta: 3 initialized @(4,0)
Shared mode is : 1
GPGPU-Sim uArch: core:  5, cta: 3 initialized @(4,0)
Shared mode is : 1
GPGPU-Sim uArch: core:  6, cta: 3 initialized @(4,0)
Shared mode is : 1
GPGPU-Sim uArch: core:  7, cta: 3 initialized @(4,0)
Shared mode is : 1
GPGPU-Sim uArch: core:  8, cta: 3 initialized @(4,0)
Shared mode is : 1
GPGPU-Sim uArch: core:  9, cta: 3 initialized @(4,0)
Shared mode is : 1
GPGPU-Sim uArch: core: 10, cta: 3 initialized @(4,0)
Shared mode is : 1
GPGPU-Sim uArch: core: 11, cta: 3 initialized @(4,0)
Shared mode is : 1
GPGPU-Sim uArch: core: 12, cta: 3 initialized @(4,0)
Shared mode is : 1
GPGPU-Sim uArch: core: 13, cta: 3 initialized @(4,0)
Shared mode is : 1
GPGPU-Sim uArch: core:  0, cta: 3 initialized @(4,0)
Shared mode is : 1
GPGPU-Sim uArch: core:  1, cta: 4 initialized @(5,0)
Shared mode is : 1
GPGPU-Sim uArch: core:  2, cta: 4 initialized @(5,0)
Shared mode is : 1
GPGPU-Sim uArch: core:  3, cta: 4 initialized @(5,0)
Shared mode is : 1
GPGPU-Sim uArch: core:  4, cta: 4 initialized @(5,0)
Shared mode is : 1
GPGPU-Sim uArch: core:  5, cta: 4 initialized @(5,0)
Shared mode is : 1
GPGPU-Sim uArch: core:  6, cta: 4 initialized @(5,0)
Shared mode is : 1
GPGPU-Sim uArch: core:  7, cta: 4 initialized @(5,0)
Shared mode is : 1
GPGPU-Sim uArch: core:  8, cta: 4 initialized @(5,0)
Shared mode is : 1
GPGPU-Sim uArch: core:  9, cta: 4 initialized @(5,0)
Shared mode is : 1
GPGPU-Sim uArch: core: 10, cta: 4 initialized @(5,0)
Shared mode is : 1
GPGPU-Sim uArch: core: 11, cta: 4 initialized @(5,0)
Shared mode is : 1
GPGPU-Sim uArch: core: 12, cta: 4 initialized @(5,0)
Shared mode is : 1
GPGPU-Sim uArch: core: 13, cta: 4 initialized @(5,0)
Shared mode is : 1
GPGPU-Sim uArch: core:  0, cta: 4 initialized @(5,0)
Shared mode is : 1
GPGPU-Sim uArch: core:  1, cta: 5 initialized @(6,0)
Shared mode is : 1
GPGPU-Sim uArch: core:  2, cta: 5 initialized @(6,0)
Shared mode is : 1
GPGPU-Sim uArch: core:  3, cta: 5 initialized @(6,0)
Shared mode is : 1
GPGPU-Sim uArch: core:  4, cta: 5 initialized @(6,0)
Shared mode is : 1
GPGPU-Sim uArch: core:  5, cta: 5 initialized @(6,0)
Shared mode is : 1
GPGPU-Sim uArch: core:  6, cta: 5 initialized @(6,0)
Shared mode is : 1
GPGPU-Sim uArch: core:  7, cta: 5 initialized @(6,0)
Shared mode is : 1
GPGPU-Sim uArch: core:  8, cta: 5 initialized @(6,0)
Shared mode is : 1
GPGPU-Sim uArch: core:  9, cta: 5 initialized @(6,0)
Shared mode is : 1
GPGPU-Sim uArch: core: 10, cta: 5 initialized @(6,0)
Shared mode is : 1
GPGPU-Sim uArch: core: 11, cta: 5 initialized @(6,0)
Shared mode is : 1
GPGPU-Sim uArch: core: 12, cta: 5 initialized @(6,0)
Shared mode is : 1
GPGPU-Sim uArch: core: 13, cta: 5 initialized @(6,0)
Shared mode is : 1
GPGPU-Sim uArch: core:  0, cta: 5 initialized @(6,0)
GPGPU-Sim PTX: WARNING (_1.ptx:352) ** reading undefined register '$r124' (cuid:0). Setting to 0X00000000. This is okay if you are simulating the native ISA
GPGPU-Sim uArch: Shader 4 finished CTA #2 (23717,0), 5 CTAs running
Shared mode is : 1
GPGPU-Sim uArch: core:  4, cta: 2 initialized @(23718,0)
GPGPU-Sim uArch: Shader 12 finished CTA #4 (24321,0), 5 CTAs running
Shared mode is : 1
GPGPU-Sim uArch: core: 12, cta: 4 initialized @(24322,0)
GPGPU-Sim uArch: Shader 2 finished CTA #2 (24755,0), 5 CTAs running
Shared mode is : 1
GPGPU-Sim uArch: core:  2, cta: 2 initialized @(24756,0)
GPGPU-Sim uArch: Shader 6 finished CTA #2 (25553,0), 5 CTAs running
Shared mode is : 1
GPGPU-Sim uArch: core:  6, cta: 2 initialized @(25554,0)
GPGPU-Sim uArch: Shader 5 finished CTA #2 (25673,0), 5 CTAs running
Shared mode is : 1
GPGPU-Sim uArch: core:  5, cta: 2 initialized @(25674,0)
GPGPU-Sim uArch: Shader 8 finished CTA #2 (26583,0), 5 CTAs running
Shared mode is : 1
GPGPU-Sim uArch: core:  8, cta: 2 initialized @(26584,0)
GPGPU-Sim uArch: Shader 13 finished CTA #2 (27069,0), 5 CTAs running
Shared mode is : 1
GPGPU-Sim uArch: core: 13, cta: 2 initialized @(27070,0)
GPGPU-Sim uArch: Shader 9 finished CTA #4 (27095,0), 5 CTAs running
Shared mode is : 1
GPGPU-Sim uArch: core:  9, cta: 4 initialized @(27096,0)
GPGPU-Sim uArch: Shader 1 finished CTA #4 (27126,0), 5 CTAs running
Shared mode is : 1
GPGPU-Sim uArch: core:  1, cta: 4 initialized @(27127,0)
GPGPU-Sim uArch: Shader 7 finished CTA #4 (27202,0), 5 CTAs running
Shared mode is : 1
GPGPU-Sim uArch: core:  7, cta: 4 initialized @(27203,0)
GPGPU-Sim uArch: Shader 10 finished CTA #4 (27480,0), 5 CTAs running
Shared mode is : 1
GPGPU-Sim uArch: core: 10, cta: 4 initialized @(27481,0)
GPGPU-Sim uArch: Shader 3 finished CTA #4 (27936,0), 5 CTAs running
Shared mode is : 1
GPGPU-Sim uArch: core:  3, cta: 4 initialized @(27937,0)
GPGPU-Sim uArch: Shader 0 finished CTA #4 (29440,0), 5 CTAs running
Shared mode is : 1
GPGPU-Sim uArch: core:  0, cta: 4 initialized @(29441,0)
GPGPU-Sim uArch: Shader 11 finished CTA #2 (29723,0), 5 CTAs running
Shared mode is : 1
GPGPU-Sim uArch: core: 11, cta: 2 initialized @(29724,0)
GPGPU-Sim uArch: Shader 6 finished CTA #5 (30930,0), 5 CTAs running
Shared mode is : 1
GPGPU-Sim uArch: core:  6, cta: 5 initialized @(30931,0)
GPGPU-Sim uArch: Shader 13 finished CTA #5 (32154,0), 5 CTAs running
Shared mode is : 1
GPGPU-Sim uArch: core: 13, cta: 5 initialized @(32155,0)
GPGPU-Sim uArch: Shader 12 finished CTA #5 (32208,0), 5 CTAs running
Shared mode is : 1
GPGPU-Sim uArch: core: 12, cta: 5 initialized @(32209,0)
GPGPU-Sim uArch: Shader 9 finished CTA #5 (32488,0), 5 CTAs running
Shared mode is : 1
GPGPU-Sim uArch: core:  9, cta: 5 initialized @(32489,0)
GPGPU-Sim uArch: Shader 2 finished CTA #5 (33197,0), 5 CTAs running
Shared mode is : 1
GPGPU-Sim uArch: core:  2, cta: 5 initialized @(33198,0)
GPGPU-Sim uArch: Shader 4 finished CTA #5 (33721,0), 5 CTAs running
Shared mode is : 1
GPGPU-Sim uArch: core:  4, cta: 5 initialized @(33722,0)
GPGPU-Sim uArch: Shader 1 finished CTA #5 (33866,0), 5 CTAs running
Shared mode is : 1
GPGPU-Sim uArch: core:  1, cta: 5 initialized @(33867,0)
GPGPU-Sim uArch: Shader 0 finished CTA #5 (34007,0), 5 CTAs running
Shared mode is : 1
GPGPU-Sim uArch: core:  0, cta: 5 initialized @(34008,0)
GPGPU-Sim uArch: Shader 10 finished CTA #5 (34401,0), 5 CTAs running
Shared mode is : 1
GPGPU-Sim uArch: core: 10, cta: 5 initialized @(34402,0)
GPGPU-Sim uArch: Shader 11 finished CTA #5 (34613,0), 5 CTAs running
Shared mode is : 1
GPGPU-Sim uArch: core: 11, cta: 5 initialized @(34614,0)
GPGPU-Sim uArch: Shader 5 finished CTA #5 (34854,0), 5 CTAs running
Shared mode is : 1
GPGPU-Sim uArch: core:  5, cta: 5 initialized @(34855,0)
GPGPU-Sim uArch: Shader 3 finished CTA #5 (35377,0), 5 CTAs running
Shared mode is : 1
GPGPU-Sim uArch: core:  3, cta: 5 initialized @(35378,0)
GPGPU-Sim uArch: Shader 7 finished CTA #5 (35981,0), 5 CTAs running
Shared mode is : 1
GPGPU-Sim uArch: core:  7, cta: 5 initialized @(35982,0)
GPGPU-Sim uArch: Shader 8 finished CTA #5 (37191,0), 5 CTAs running
Shared mode is : 1
GPGPU-Sim uArch: core:  8, cta: 5 initialized @(37192,0)
GPGPU-Sim uArch: Shader 12 finished CTA #2 (44513,0), 5 CTAs running
Shared mode is : 1
GPGPU-Sim uArch: core: 12, cta: 2 initialized @(44514,0)
GPGPU-Sim uArch: Shader 9 finished CTA #2 (46138,0), 5 CTAs running
Shared mode is : 1
GPGPU-Sim uArch: core:  9, cta: 2 initialized @(46139,0)
GPGPU-Sim uArch: Shader 3 finished CTA #2 (46799,0), 5 CTAs running
Shared mode is : 1
GPGPU-Sim uArch: core:  3, cta: 2 initialized @(46800,0)
GPGPU-Sim uArch: Shader 7 finished CTA #2 (47892,0), 5 CTAs running
Shared mode is : 1
GPGPU-Sim uArch: core:  7, cta: 2 initialized @(47893,0)
GPGPU-Sim uArch: Shader 1 finished CTA #2 (48048,0), 5 CTAs running
Shared mode is : 1
GPGPU-Sim uArch: core:  1, cta: 2 initialized @(48049,0)
GPGPU-Sim uArch: Shader 0 finished CTA #2 (48441,0), 5 CTAs running
Shared mode is : 1
GPGPU-Sim uArch: core:  0, cta: 2 initialized @(48442,0)
GPGPU-Sim uArch: Shader 10 finished CTA #2 (48607,0), 5 CTAs running
Shared mode is : 1
GPGPU-Sim uArch: core: 10, cta: 2 initialized @(48608,0)
GPGPU-Sim uArch: Shader 4 finished CTA #4 (48781,0), 5 CTAs running
Shared mode is : 1
GPGPU-Sim uArch: core:  4, cta: 4 initialized @(48782,0)
GPGPU-Sim uArch: Shader 8 finished CTA #4 (48925,0), 5 CTAs running
Shared mode is : 1
GPGPU-Sim uArch: core:  8, cta: 4 initialized @(48926,0)
GPGPU-Sim uArch: Shader 6 finished CTA #4 (49414,0), 5 CTAs running
Shared mode is : 1
GPGPU-Sim uArch: core:  6, cta: 4 initialized @(49415,0)
GPGPU-Sim uArch: Shader 7 finished CTA #0 (49618,0), 5 CTAs running
Shared mode is : 1
GPGPU-Sim uArch: core:  7, cta: 0 initialized @(49619,0)
GPGPU-Sim uArch: Shader 6 finished CTA #0 (49646,0), 5 CTAs running
Shared mode is : 1
GPGPU-Sim uArch: core:  6, cta: 0 initialized @(49647,0)
GPGPU-Sim uArch: Shader 6 finished CTA #3 (50945,0), 5 CTAs running
Shared mode is : 1
GPGPU-Sim uArch: core:  6, cta: 3 initialized @(50946,0)
GPGPU-Sim uArch: Shader 12 finished CTA #0 (51122,0), 5 CTAs running
Shared mode is : 1
GPGPU-Sim uArch: core: 12, cta: 0 initialized @(51123,0)
GPGPU-Sim uArch: Shader 0 finished CTA #0 (52516,0), 5 CTAs running
Shared mode is : 1
GPGPU-Sim uArch: core:  0, cta: 0 initialized @(52517,0)
GPGPU-Sim uArch: Shader 4 finished CTA #0 (53134,0), 5 CTAs running
Shared mode is : 1
GPGPU-Sim uArch: core:  4, cta: 0 initialized @(53135,0)
GPGPU-Sim uArch: Shader 13 finished CTA #3 (53295,0), 5 CTAs running
Shared mode is : 1
GPGPU-Sim uArch: core: 13, cta: 3 initialized @(53296,0)
GPGPU-Sim uArch: Shader 5 finished CTA #4 (53884,0), 5 CTAs running
Shared mode is : 1
GPGPU-Sim uArch: core:  5, cta: 4 initialized @(53885,0)
GPGPU-Sim uArch: Shader 2 finished CTA #0 (53931,0), 5 CTAs running
Shared mode is : 1
GPGPU-Sim uArch: core:  2, cta: 0 initialized @(53932,0)
GPGPU-Sim uArch: Shader 8 finished CTA #3 (53935,0), 5 CTAs running
Shared mode is : 1
GPGPU-Sim uArch: core:  8, cta: 3 initialized @(53936,0)
GPGPU-Sim uArch: Shader 13 finished CTA #0 (54310,0), 5 CTAs running
Shared mode is : 1
GPGPU-Sim uArch: core: 13, cta: 0 initialized @(54311,0)
GPGPU-Sim uArch: Shader 5 finished CTA #3 (54661,0), 5 CTAs running
Shared mode is : 1
GPGPU-Sim uArch: core:  5, cta: 3 initialized @(54662,0)
GPGPU-Sim uArch: Shader 11 finished CTA #3 (54759,0), 5 CTAs running
Shared mode is : 1
GPGPU-Sim uArch: core: 11, cta: 3 initialized @(54760,0)
GPGPU-Sim uArch: Shader 8 finished CTA #0 (54875,0), 5 CTAs running
Shared mode is : 1
GPGPU-Sim uArch: core:  8, cta: 0 initialized @(54876,0)
GPGPU-Sim uArch: Shader 12 finished CTA #3 (55341,0), 5 CTAs running
Shared mode is : 1
GPGPU-Sim uArch: core: 12, cta: 3 initialized @(55342,0)
GPGPU-Sim uArch: Shader 4 finished CTA #3 (55745,0), 5 CTAs running
Shared mode is : 1
GPGPU-Sim uArch: core:  4, cta: 3 initialized @(55746,0)
GPGPU-Sim uArch: Shader 11 finished CTA #0 (55803,0), 5 CTAs running
Shared mode is : 1
GPGPU-Sim uArch: core: 11, cta: 0 initialized @(55804,0)
GPGPU-Sim uArch: Shader 10 finished CTA #0 (55941,0), 5 CTAs running
Shared mode is : 1
GPGPU-Sim uArch: core: 10, cta: 0 initialized @(55942,0)
GPGPU-Sim uArch: Shader 3 finished CTA #0 (56232,0), 5 CTAs running
Shared mode is : 1
GPGPU-Sim uArch: core:  3, cta: 0 initialized @(56233,0)
GPGPU-Sim uArch: Shader 13 finished CTA #4 (56331,0), 5 CTAs running
Shared mode is : 1
GPGPU-Sim uArch: core: 13, cta: 4 initialized @(56332,0)
GPGPU-Sim uArch: Shader 3 finished CTA #3 (57003,0), 5 CTAs running
Shared mode is : 1
GPGPU-Sim uArch: core:  3, cta: 3 initialized @(57004,0)
GPGPU-Sim uArch: Shader 2 finished CTA #3 (57075,0), 5 CTAs running
Shared mode is : 1
GPGPU-Sim uArch: core:  2, cta: 3 initialized @(57076,0)
GPGPU-Sim uArch: Shader 0 finished CTA #3 (57233,0), 5 CTAs running
Shared mode is : 1
GPGPU-Sim uArch: core:  0, cta: 3 initialized @(57234,0)
GPGPU-Sim uArch: Shader 9 finished CTA #3 (57465,0), 5 CTAs running
Shared mode is : 1
GPGPU-Sim uArch: core:  9, cta: 3 initialized @(57466,0)
GPGPU-Sim uArch: Shader 2 finished CTA #4 (58381,0), 5 CTAs running
Shared mode is : 1
GPGPU-Sim uArch: core:  2, cta: 4 initialized @(58382,0)
GPGPU-Sim uArch: Shader 11 finished CTA #4 (58469,0), 5 CTAs running
Shared mode is : 1
GPGPU-Sim uArch: core: 11, cta: 4 initialized @(58470,0)
GPGPU-Sim uArch: Shader 9 finished CTA #0 (58829,0), 5 CTAs running
Shared mode is : 1
GPGPU-Sim uArch: core:  9, cta: 0 initialized @(58830,0)
GPGPU-Sim uArch: Shader 5 finished CTA #0 (58885,0), 5 CTAs running
Shared mode is : 1
GPGPU-Sim uArch: core:  5, cta: 0 initialized @(58886,0)
GPGPU-Sim uArch: Shader 10 finished CTA #3 (59374,0), 5 CTAs running
Shared mode is : 1
GPGPU-Sim uArch: core: 10, cta: 3 initialized @(59375,0)
GPGPU-Sim uArch: Shader 1 finished CTA #0 (61818,0), 5 CTAs running
Shared mode is : 1
GPGPU-Sim uArch: core:  1, cta: 0 initialized @(61819,0)
GPGPU-Sim uArch: Shader 7 finished CTA #3 (62388,0), 5 CTAs running
Shared mode is : 1
GPGPU-Sim uArch: core:  7, cta: 3 initialized @(62389,0)
GPGPU-Sim uArch: Shader 1 finished CTA #3 (62420,0), 5 CTAs running
Shared mode is : 1
GPGPU-Sim uArch: core:  1, cta: 3 initialized @(62421,0)
GPGPU-Sim uArch: Shader 9 finished CTA #4 (64881,0), 5 CTAs running
Shared mode is : 1
GPGPU-Sim uArch: core:  9, cta: 4 initialized @(64882,0)
GPGPU-Sim uArch: Shader 12 finished CTA #4 (66173,0), 5 CTAs running
Shared mode is : 1
GPGPU-Sim uArch: core: 12, cta: 4 initialized @(66174,0)
GPGPU-Sim uArch: Shader 3 finished CTA #4 (68500,0), 5 CTAs running
Shared mode is : 1
GPGPU-Sim uArch: core:  3, cta: 4 initialized @(68501,0)
GPGPU-Sim uArch: Shader 10 finished CTA #4 (68899,0), 5 CTAs running
Shared mode is : 1
GPGPU-Sim uArch: core: 10, cta: 4 initialized @(68900,0)
GPGPU-Sim uArch: Shader 6 finished CTA #2 (69200,0), 5 CTAs running
Shared mode is : 1
GPGPU-Sim uArch: core:  6, cta: 2 initialized @(69201,0)
GPGPU-Sim uArch: Shader 4 finished CTA #2 (69565,0), 5 CTAs running
Shared mode is : 1
GPGPU-Sim uArch: core:  4, cta: 2 initialized @(69566,0)
GPGPU-Sim uArch: Shader 8 finished CTA #2 (70326,0), 5 CTAs running
Shared mode is : 1
GPGPU-Sim uArch: core:  8, cta: 2 initialized @(70327,0)
GPGPU-Sim uArch: Shader 1 finished CTA #4 (71142,0), 5 CTAs running
Shared mode is : 1
GPGPU-Sim uArch: core:  1, cta: 4 initialized @(71143,0)
GPGPU-Sim uArch: Shader 7 finished CTA #4 (71302,0), 5 CTAs running
Shared mode is : 1
GPGPU-Sim uArch: core:  7, cta: 4 initialized @(71303,0)
GPGPU-Sim uArch: Shader 6 finished CTA #1 (71818,0), 5 CTAs running
Shared mode is : 1
GPGPU-Sim uArch: core:  6, cta: 1 initialized @(71819,0)
GPGPU-Sim uArch: Shader 0 finished CTA #1 (73172,0), 5 CTAs running
Shared mode is : 1
GPGPU-Sim uArch: core:  0, cta: 1 initialized @(73173,0)
GPGPU-Sim uArch: Shader 0 finished CTA #4 (73199,0), 5 CTAs running
Shared mode is : 1
GPGPU-Sim uArch: core:  0, cta: 4 initialized @(73200,0)
GPGPU-Sim uArch: Shader 7 finished CTA #1 (73917,0), 5 CTAs running
Shared mode is : 1
GPGPU-Sim uArch: core:  7, cta: 1 initialized @(73918,0)
GPGPU-Sim uArch: Shader 6 finished CTA #5 (75211,0), 5 CTAs running
Shared mode is : 1
GPGPU-Sim uArch: core:  6, cta: 5 initialized @(75212,0)
GPGPU-Sim uArch: Shader 12 finished CTA #5 (76339,0), 5 CTAs running
Shared mode is : 1
GPGPU-Sim uArch: core: 12, cta: 5 initialized @(76340,0)
GPGPU-Sim uArch: Shader 5 finished CTA #2 (76353,0), 5 CTAs running
Shared mode is : 1
GPGPU-Sim uArch: core:  5, cta: 2 initialized @(76354,0)
GPGPU-Sim uArch: Shader 3 finished CTA #1 (76376,0), 5 CTAs running
Shared mode is : 1
GPGPU-Sim uArch: core:  3, cta: 1 initialized @(76377,0)
GPGPU-Sim uArch: Shader 8 finished CTA #5 (77096,0), 5 CTAs running
Shared mode is : 1
GPGPU-Sim uArch: core:  8, cta: 5 initialized @(77097,0)
GPGPU-Sim uArch: Shader 2 finished CTA #2 (77160,0), 5 CTAs running
Shared mode is : 1
GPGPU-Sim uArch: core:  2, cta: 2 initialized @(77161,0)
GPGPU-Sim uArch: Shader 3 finished CTA #5 (77515,0), 5 CTAs running
Shared mode is : 1
GPGPU-Sim uArch: core:  3, cta: 5 initialized @(77516,0)
GPGPU-Sim uArch: Shader 11 finished CTA #2 (78071,0), 5 CTAs running
Shared mode is : 1
GPGPU-Sim uArch: core: 11, cta: 2 initialized @(78072,0)
GPGPU-Sim uArch: Shader 2 finished CTA #1 (78922,0), 5 CTAs running
Shared mode is : 1
GPGPU-Sim uArch: core:  2, cta: 1 initialized @(78923,0)
GPGPU-Sim uArch: Shader 9 finished CTA #5 (79244,0), 5 CTAs running
Shared mode is : 1
GPGPU-Sim uArch: core:  9, cta: 5 initialized @(79245,0)
GPGPU-Sim uArch: Shader 13 finished CTA #1 (79377,0), 5 CTAs running
Shared mode is : 1
GPGPU-Sim uArch: core: 13, cta: 1 initialized @(79378,0)
GPGPU-Sim uArch: Shader 13 finished CTA #2 (79429,0), 5 CTAs running
Shared mode is : 1
GPGPU-Sim uArch: core: 13, cta: 2 initialized @(79430,0)
GPGPU-Sim uArch: Shader 5 finished CTA #5 (79894,0), 5 CTAs running
Shared mode is : 1
GPGPU-Sim uArch: core:  5, cta: 5 initialized @(79895,0)
GPGPU-Sim uArch: Shader 13 finished CTA #5 (80715,0), 5 CTAs running
Shared mode is : 1
GPGPU-Sim uArch: core: 13, cta: 5 initialized @(80716,0)
GPGPU-Sim uArch: Shader 2 finished CTA #5 (81179,0), 5 CTAs running
Shared mode is : 1
GPGPU-Sim uArch: core:  2, cta: 5 initialized @(81180,0)
GPGPU-Sim uArch: Shader 4 finished CTA #5 (81263,0), 5 CTAs running
Shared mode is : 1
GPGPU-Sim uArch: core:  4, cta: 5 initialized @(81264,0)
GPGPU-Sim uArch: Shader 11 finished CTA #1 (81529,0), 5 CTAs running
Shared mode is : 1
GPGPU-Sim uArch: core: 11, cta: 1 initialized @(81530,0)
GPGPU-Sim uArch: Shader 10 finished CTA #1 (81741,0), 5 CTAs running
Shared mode is : 1
GPGPU-Sim uArch: core: 10, cta: 1 initialized @(81742,0)
GPGPU-Sim uArch: Shader 12 finished CTA #1 (81955,0), 5 CTAs running
Shared mode is : 1
GPGPU-Sim uArch: core: 12, cta: 1 initialized @(81956,0)
GPGPU-Sim uArch: Shader 11 finished CTA #5 (83177,0), 5 CTAs running
Shared mode is : 1
GPGPU-Sim uArch: core: 11, cta: 5 initialized @(83178,0)
GPGPU-Sim uArch: Shader 10 finished CTA #5 (83554,0), 5 CTAs running
Shared mode is : 1
GPGPU-Sim uArch: core: 10, cta: 5 initialized @(83555,0)
GPGPU-Sim uArch: Shader 5 finished CTA #1 (83654,0), 5 CTAs running
Shared mode is : 1
GPGPU-Sim uArch: core:  5, cta: 1 initialized @(83655,0)
GPGPU-Sim uArch: Shader 1 finished CTA #5 (83721,0), 5 CTAs running
Shared mode is : 1
GPGPU-Sim uArch: core:  1, cta: 5 initialized @(83722,0)
GPGPU-Sim uArch: Shader 0 finished CTA #5 (83907,0), 5 CTAs running
Shared mode is : 1
GPGPU-Sim uArch: core:  0, cta: 5 initialized @(83908,0)
GPGPU-Sim uArch: Shader 7 finished CTA #5 (84001,0), 5 CTAs running
Shared mode is : 1
GPGPU-Sim uArch: core:  7, cta: 5 initialized @(84002,0)
GPGPU-Sim uArch: Shader 1 finished CTA #1 (84118,0), 5 CTAs running
Shared mode is : 1
GPGPU-Sim uArch: core:  1, cta: 1 initialized @(84119,0)
GPGPU-Sim uArch: Shader 4 finished CTA #1 (86154,0), 5 CTAs running
Shared mode is : 1
GPGPU-Sim uArch: core:  4, cta: 1 initialized @(86155,0)
GPGPU-Sim uArch: Shader 9 finished CTA #1 (87043,0), 5 CTAs running
Shared mode is : 1
GPGPU-Sim uArch: core:  9, cta: 1 initialized @(87044,0)
GPGPU-Sim uArch: Shader 9 finished CTA #2 (87542,0), 5 CTAs running
Shared mode is : 1
GPGPU-Sim uArch: core:  9, cta: 2 initialized @(87543,0)
GPGPU-Sim uArch: Shader 8 finished CTA #1 (87929,0), 5 CTAs running
GPGPU-Sim uArch: Shader 6 finished CTA #4 (89043,0), 5 CTAs running
GPGPU-Sim uArch: Shader 12 finished CTA #2 (89848,0), 5 CTAs running
GPGPU-Sim uArch: Shader 3 finished CTA #2 (90818,0), 5 CTAs running
GPGPU-Sim uArch: Shader 4 finished CTA #4 (91993,0), 5 CTAs running
GPGPU-Sim uArch: Shader 8 finished CTA #4 (92422,0), 4 CTAs running
GPGPU-Sim uArch: Shader 10 finished CTA #2 (93450,0), 5 CTAs running
GPGPU-Sim uArch: Shader 0 finished CTA #2 (95006,0), 5 CTAs running
GPGPU-Sim uArch: Shader 7 finished CTA #2 (95944,0), 5 CTAs running
GPGPU-Sim uArch: Shader 1 finished CTA #2 (96744,0), 5 CTAs running
GPGPU-Sim uArch: Shader 8 finished CTA #3 (96815,0), 3 CTAs running
GPGPU-Sim uArch: Shader 5 finished CTA #4 (96844,0), 5 CTAs running
GPGPU-Sim uArch: Shader 12 finished CTA #3 (97802,0), 4 CTAs running
GPGPU-Sim uArch: Shader 6 finished CTA #3 (98538,0), 4 CTAs running
GPGPU-Sim uArch: Shader 13 finished CTA #3 (99311,0), 5 CTAs running
GPGPU-Sim uArch: Shader 2 finished CTA #3 (100242,0), 5 CTAs running
GPGPU-Sim uArch: Shader 8 finished CTA #0 (101853,0), 2 CTAs running
GPGPU-Sim uArch: Shader 2 finished CTA #4 (102688,0), 4 CTAs running
GPGPU-Sim uArch: Shader 11 finished CTA #4 (103044,0), 5 CTAs running
GPGPU-Sim uArch: Shader 9 finished CTA #3 (103471,0), 5 CTAs running
GPGPU-Sim uArch: Shader 7 finished CTA #3 (104321,0), 4 CTAs running
GPGPU-Sim uArch: Shader 2 finished CTA #0 (104329,0), 3 CTAs running
GPGPU-Sim uArch: Shader 4 finished CTA #3 (104404,0), 4 CTAs running
GPGPU-Sim uArch: Shader 3 finished CTA #3 (104576,0), 4 CTAs running
GPGPU-Sim uArch: Shader 11 finished CTA #3 (104667,0), 4 CTAs running
GPGPU-Sim uArch: Shader 8 finished CTA #2 (104724,0), 1 CTAs running
GPGPU-Sim uArch: Shader 5 finished CTA #3 (104890,0), 4 CTAs running
GPGPU-Sim uArch: Shader 4 finished CTA #0 (104962,0), 3 CTAs running
GPGPU-Sim uArch: Shader 13 finished CTA #4 (105904,0), 4 CTAs running
GPGPU-Sim uArch: Shader 6 finished CTA #0 (106121,0), 3 CTAs running
GPGPU-Sim uArch: Shader 0 finished CTA #0 (106449,0), 4 CTAs running
GPGPU-Sim uArch: Shader 12 finished CTA #0 (106489,0), 3 CTAs running
GPGPU-Sim uArch: Shader 13 finished CTA #0 (106667,0), 3 CTAs running
GPGPU-Sim uArch: Shader 10 finished CTA #3 (107110,0), 4 CTAs running
GPGPU-Sim uArch: Shader 12 finished CTA #4 (107241,0), 2 CTAs running
GPGPU-Sim uArch: Shader 6 finished CTA #2 (107260,0), 2 CTAs running
GPGPU-Sim uArch: Shader 1 finished CTA #3 (107372,0), 4 CTAs running
GPGPU-Sim uArch: Shader 8 finished CTA #5 (107593,0), 0 CTAs running
GPGPU-Sim uArch: Shader 8 empty (release kernel 1 '_Z15mummergpuKernelP10MatchCoordPcPKiS3_ii').
GPGPU-Sim uArch: Shader 4 finished CTA #2 (108080,0), 2 CTAs running
GPGPU-Sim uArch: Shader 3 finished CTA #0 (108109,0), 3 CTAs running
GPGPU-Sim uArch: Shader 0 finished CTA #3 (108410,0), 3 CTAs running
GPGPU-Sim uArch: Shader 6 finished CTA #5 (108687,0), 1 CTAs running
GPGPU-Sim uArch: Shader 3 finished CTA #4 (109234,0), 2 CTAs running
GPGPU-Sim uArch: Shader 7 finished CTA #4 (109957,0), 3 CTAs running
GPGPU-Sim uArch: Shader 12 finished CTA #5 (109969,0), 1 CTAs running
GPGPU-Sim uArch: Shader 9 finished CTA #4 (109996,0), 4 CTAs running
GPGPU-Sim uArch: Shader 5 finished CTA #2 (110059,0), 3 CTAs running
GPGPU-Sim uArch: Shader 7 finished CTA #0 (110129,0), 2 CTAs running
GPGPU-Sim uArch: Shader 0 finished CTA #4 (110246,0), 2 CTAs running
GPGPU-Sim uArch: Shader 6 finished CTA #1 (110733,0), 0 CTAs running
GPGPU-Sim uArch: Shader 6 empty (release kernel 1 '_Z15mummergpuKernelP10MatchCoordPcPKiS3_ii').
GPGPU-Sim uArch: Shader 12 finished CTA #1 (111428,0), 0 CTAs running
GPGPU-Sim uArch: Shader 12 empty (release kernel 1 '_Z15mummergpuKernelP10MatchCoordPcPKiS3_ii').
GPGPU-Sim uArch: Shader 10 finished CTA #0 (111480,0), 3 CTAs running
GPGPU-Sim uArch: Shader 5 finished CTA #0 (111688,0), 2 CTAs running
GPGPU-Sim uArch: Shader 10 finished CTA #4 (112052,0), 2 CTAs running
GPGPU-Sim uArch: Shader 13 finished CTA #2 (112370,0), 2 CTAs running
GPGPU-Sim uArch: Shader 4 finished CTA #5 (112550,0), 1 CTAs running
GPGPU-Sim uArch: Shader 3 finished CTA #5 (112651,0), 1 CTAs running
GPGPU-Sim uArch: Shader 11 finished CTA #2 (112656,0), 3 CTAs running
GPGPU-Sim uArch: Shader 2 finished CTA #2 (113239,0), 2 CTAs running
GPGPU-Sim uArch: Shader 1 finished CTA #4 (113291,0), 3 CTAs running
GPGPU-Sim uArch: Shader 0 finished CTA #1 (113480,0), 1 CTAs running
GPGPU-Sim uArch: Shader 5 finished CTA #5 (113587,0), 1 CTAs running
GPGPU-Sim uArch: Shader 11 finished CTA #0 (113765,0), 2 CTAs running
GPGPU-Sim uArch: Shader 4 finished CTA #1 (114028,0), 0 CTAs running
GPGPU-Sim uArch: Shader 4 empty (release kernel 1 '_Z15mummergpuKernelP10MatchCoordPcPKiS3_ii').
GPGPU-Sim uArch: Shader 7 finished CTA #5 (114106,0), 1 CTAs running
GPGPU-Sim uArch: Shader 13 finished CTA #5 (114112,0), 1 CTAs running
GPGPU-Sim uArch: Shader 3 finished CTA #1 (114316,0), 0 CTAs running
GPGPU-Sim uArch: Shader 3 empty (release kernel 1 '_Z15mummergpuKernelP10MatchCoordPcPKiS3_ii').
GPGPU-Sim uArch: Shader 9 finished CTA #5 (114531,0), 3 CTAs running
GPGPU-Sim uArch: Shader 1 finished CTA #0 (114615,0), 2 CTAs running
GPGPU-Sim uArch: Shader 9 finished CTA #0 (114833,0), 2 CTAs running
GPGPU-Sim uArch: Shader 9 finished CTA #2 (115414,0), 1 CTAs running
GPGPU-Sim uArch: Shader 0 finished CTA #5 (115514,0), 0 CTAs running
GPGPU-Sim uArch: Shader 0 empty (release kernel 1 '_Z15mummergpuKernelP10MatchCoordPcPKiS3_ii').
GPGPU-Sim uArch: Shader 2 finished CTA #5 (115601,0), 1 CTAs running
GPGPU-Sim uArch: Shader 7 finished CTA #1 (115653,0), 0 CTAs running
GPGPU-Sim uArch: Shader 7 empty (release kernel 1 '_Z15mummergpuKernelP10MatchCoordPcPKiS3_ii').
GPGPU-Sim uArch: Shader 1 finished CTA #5 (115950,0), 1 CTAs running
GPGPU-Sim uArch: Shader 5 finished CTA #1 (116108,0), 0 CTAs running
GPGPU-Sim uArch: Shader 5 empty (release kernel 1 '_Z15mummergpuKernelP10MatchCoordPcPKiS3_ii').
GPGPU-Sim uArch: Shader 11 finished CTA #5 (116416,0), 1 CTAs running
GPGPU-Sim uArch: Shader 2 finished CTA #1 (116741,0), 0 CTAs running
GPGPU-Sim uArch: Shader 2 empty (release kernel 1 '_Z15mummergpuKernelP10MatchCoordPcPKiS3_ii').
GPGPU-Sim uArch: Shader 10 finished CTA #5 (117074,0), 1 CTAs running
GPGPU-Sim uArch: Shader 10 finished CTA #1 (117382,0), 0 CTAs running
GPGPU-Sim uArch: Shader 10 empty (release kernel 1 '_Z15mummergpuKernelP10MatchCoordPcPKiS3_ii').
GPGPU-Sim uArch: Shader 13 finished CTA #1 (117502,0), 0 CTAs running
GPGPU-Sim uArch: Shader 13 empty (release kernel 1 '_Z15mummergpuKernelP10MatchCoordPcPKiS3_ii').
GPGPU-Sim uArch: Shader 1 finished CTA #1 (118145,0), 0 CTAs running
GPGPU-Sim uArch: Shader 1 empty (release kernel 1 '_Z15mummergpuKernelP10MatchCoordPcPKiS3_ii').
GPGPU-Sim uArch: Shader 9 finished CTA #1 (118216,0), 0 CTAs running
GPGPU-Sim uArch: Shader 9 empty (release kernel 1 '_Z15mummergpuKernelP10MatchCoordPcPKiS3_ii').
GPGPU-Sim uArch: Shader 11 finished CTA #1 (118419,0), 0 CTAs running
GPGPU-Sim uArch: Shader 11 empty (release kernel 1 '_Z15mummergpuKernelP10MatchCoordPcPKiS3_ii').
GPGPU-Sim uArch: GPU detected kernel '_Z15mummergpuKernelP10MatchCoordPcPKiS3_ii' finished on shader 11.
kernel_name = _Z15mummergpuKernelP10MatchCoordPcPKiS3_ii 
kernel_launch_uid = 1 
gpu_sim_cycle = 118420
gpu_sim_insn = 21357289
gpu_ipc =     180.3520
gpu_tot_sim_cycle = 118420
gpu_tot_sim_insn = 21357289
gpu_tot_ipc =     180.3520
gpu_tot_issued_cta = 0
gpu_stall_dramfull = 176377
gpu_stall_icnt2sh    = 728729
gpu_total_sim_rate=217931

========= Core cache stats =========
L1I_cache:
	L1I_total_cache_accesses = 854282
	L1I_total_cache_misses = 2275
	L1I_total_cache_miss_rate = 0.0027
	L1I_total_cache_pending_hits = 0
	L1I_total_cache_reservation_fails = 3822
L1D_cache:
	L1D_cache_core[0]: Access = 39213, Miss = 11316, Miss_rate = 0.289, Pending_hits = 11757, Reservation_fails = 59536
	L1D_cache_core[1]: Access = 39596, Miss = 11571, Miss_rate = 0.292, Pending_hits = 11965, Reservation_fails = 60957
	L1D_cache_core[2]: Access = 39531, Miss = 11601, Miss_rate = 0.293, Pending_hits = 12546, Reservation_fails = 60452
	L1D_cache_core[3]: Access = 39324, Miss = 11419, Miss_rate = 0.290, Pending_hits = 11962, Reservation_fails = 58787
	L1D_cache_core[4]: Access = 39102, Miss = 11103, Miss_rate = 0.284, Pending_hits = 11804, Reservation_fails = 59125
	L1D_cache_core[5]: Access = 39352, Miss = 11256, Miss_rate = 0.286, Pending_hits = 11805, Reservation_fails = 59295
	L1D_cache_core[6]: Access = 39359, Miss = 11570, Miss_rate = 0.294, Pending_hits = 12155, Reservation_fails = 54219
	L1D_cache_core[7]: Access = 39440, Miss = 11425, Miss_rate = 0.290, Pending_hits = 12151, Reservation_fails = 60562
	L1D_cache_core[8]: Access = 36330, Miss = 10133, Miss_rate = 0.279, Pending_hits = 10574, Reservation_fails = 54501
	L1D_cache_core[9]: Access = 40327, Miss = 11628, Miss_rate = 0.288, Pending_hits = 12361, Reservation_fails = 61264
	L1D_cache_core[10]: Access = 39277, Miss = 11502, Miss_rate = 0.293, Pending_hits = 11970, Reservation_fails = 62444
	L1D_cache_core[11]: Access = 39371, Miss = 11403, Miss_rate = 0.290, Pending_hits = 12267, Reservation_fails = 60640
	L1D_cache_core[12]: Access = 39330, Miss = 11429, Miss_rate = 0.291, Pending_hits = 11898, Reservation_fails = 56706
	L1D_cache_core[13]: Access = 39337, Miss = 11616, Miss_rate = 0.295, Pending_hits = 12337, Reservation_fails = 60189
	L1D_total_cache_accesses = 548889
	L1D_total_cache_misses = 158972
	L1D_total_cache_miss_rate = 0.2896
	L1D_total_cache_pending_hits = 167552
	L1D_total_cache_reservation_fails = 828677
	L1D_cache_data_port_util = 0.139
	L1D_cache_fill_port_util = 0.060
L1C_cache:
	L1C_total_cache_accesses = 9378
	L1C_total_cache_misses = 435
	L1C_total_cache_miss_rate = 0.0464
	L1C_total_cache_pending_hits = 0
	L1C_total_cache_reservation_fails = 0
L1T_cache:
	L1T_total_cache_accesses = 70188
	L1T_total_cache_misses = 72
	L1T_total_cache_miss_rate = 0.0010
	L1T_total_cache_pending_hits = 70116
	L1T_total_cache_reservation_fails = 0

Total_core_cache_stats:
	Total_core_cache_stats_breakdown[GLOBAL_ACC_R][HIT] = 215217
	Total_core_cache_stats_breakdown[GLOBAL_ACC_R][HIT_RESERVED] = 167497
	Total_core_cache_stats_breakdown[GLOBAL_ACC_R][MISS] = 80111
	Total_core_cache_stats_breakdown[GLOBAL_ACC_R][RESERVATION_FAIL] = 524198
	Total_core_cache_stats_breakdown[LOCAL_ACC_R][HIT] = 1853
	Total_core_cache_stats_breakdown[LOCAL_ACC_R][MISS] = 16975
	Total_core_cache_stats_breakdown[LOCAL_ACC_R][RESERVATION_FAIL] = 161655
	Total_core_cache_stats_breakdown[CONST_ACC_R][HIT] = 8943
	Total_core_cache_stats_breakdown[CONST_ACC_R][MISS] = 435
	Total_core_cache_stats_breakdown[TEXTURE_ACC_R][HIT_RESERVED] = 70116
	Total_core_cache_stats_breakdown[TEXTURE_ACC_R][MISS] = 72
	Total_core_cache_stats_breakdown[LOCAL_ACC_W][HIT] = 5295
	Total_core_cache_stats_breakdown[LOCAL_ACC_W][HIT_RESERVED] = 55
	Total_core_cache_stats_breakdown[LOCAL_ACC_W][MISS] = 61886
	Total_core_cache_stats_breakdown[LOCAL_ACC_W][RESERVATION_FAIL] = 142824
	Total_core_cache_stats_breakdown[INST_ACC_R][HIT] = 852007
	Total_core_cache_stats_breakdown[INST_ACC_R][MISS] = 2275
	Total_core_cache_stats_breakdown[INST_ACC_R][RESERVATION_FAIL] = 3822
Shader 0 warp_id issue ditsribution:
warp_id:
0, 1, 2, 3, 4, 5, 6, 7, 8, 9, 10, 11, 12, 13, 14, 15, 16, 17, 18, 19, 20, 21, 22, 23, 24, 25, 26, 27, 28, 29, 30, 31, 32, 33, 34, 35, 36, 37, 38, 39, 40, 41, 42, 43, 44, 45, 46, 47, 
distro:
1720, 1935, 1981, 1810, 1774, 1663, 1515, 1777, 1651, 1526, 1594, 1651, 1776, 1708, 1709, 1594, 1834, 1708, 1878, 1971, 2141, 1390, 1696, 1822, 1742, 1834, 1766, 1606, 1754, 2347, 1777, 1868, 2847, 2926, 2893, 3122, 2596, 2835, 2674, 2825, 2995, 2721, 2619, 2927, 2778, 2653, 2676, 3065, 
gpgpu_n_tot_thrd_icount = 45724576
gpgpu_n_tot_w_icount = 1428893
gpgpu_n_stall_shd_mem = 1273751
gpgpu_n_mem_read_local = 16975
gpgpu_n_mem_write_local = 61941
gpgpu_n_mem_read_global = 80111
gpgpu_n_mem_write_global = 1952
gpgpu_n_mem_texture = 72
gpgpu_n_mem_const = 14
gpgpu_n_load_insn  = 1034452
gpgpu_n_store_insn = 1306254
gpgpu_n_shmem_insn = 0
gpgpu_n_tex_insn = 1031325
gpgpu_n_const_mem_insn = 299952
gpgpu_n_param_mem_insn = 0
gpgpu_n_shmem_bkconflict = 0
gpgpu_n_cache_bkconflict = 0
gpgpu_n_intrawarp_mshr_merge = 0
gpgpu_n_cmem_portconflict = 0
gpgpu_stall_shd_mem[c_mem][bk_conf] = 0
gpgpu_stall_shd_mem[c_mem][mshr_rc] = 0
gpgpu_stall_shd_mem[c_mem][icnt_rc] = 0
gpgpu_stall_shd_mem[c_mem][data_port_stall] = 0
gpgpu_stall_shd_mem[t_mem][mshr_rc] = 0
gpgpu_stall_shd_mem[t_mem][icnt_rc] = 0
gpgpu_stall_shd_mem[t_mem][data_port_stall] = 0
gpgpu_stall_shd_mem[s_mem][bk_conf] = 0
gpgpu_stall_shd_mem[gl_mem][bk_conf] = 0
gpgpu_stall_shd_mem[gl_mem][coal_stall] = 1255390
gpgpu_stall_shd_mem[gl_mem][data_port_stall] = 0
gpgpu_stall_shd_mem[g_mem_ld][mshr_rc] = 0
gpgpu_stall_shd_mem[g_mem_ld][icnt_rc] = 0
gpgpu_stall_shd_mem[g_mem_ld][wb_icnt_rc] = 0
gpgpu_stall_shd_mem[g_mem_ld][wb_rsrv_fail] = 0
gpgpu_stall_shd_mem[g_mem_st][mshr_rc] = 0
gpgpu_stall_shd_mem[g_mem_st][icnt_rc] = 0
gpgpu_stall_shd_mem[g_mem_st][wb_icnt_rc] = 0
gpgpu_stall_shd_mem[g_mem_st][wb_rsrv_fail] = 0
gpgpu_stall_shd_mem[l_mem_ld][mshr_rc] = 0
gpgpu_stall_shd_mem[l_mem_ld][icnt_rc] = 0
gpgpu_stall_shd_mem[l_mem_ld][wb_icnt_rc] = 0
gpgpu_stall_shd_mem[l_mem_ld][wb_rsrv_fail] = 0
gpgpu_stall_shd_mem[l_mem_st][mshr_rc] = 0
gpgpu_stall_shd_mem[l_mem_st][icnt_rc] = 0
gpgpu_stall_shd_mem[l_mem_ld][wb_icnt_rc] = 0
gpgpu_stall_shd_mem[l_mem_ld][wb_rsrv_fail] = 0
gpu_reg_bank_conflict_stalls = 0
Warp Occupancy Distribution:
[...]
> rid48191
> rid48192
> rid48193
> rid48194
> rid48195
> rid48196
> rid48197
> rid48198
> rid48199
> rid48200
> rid48201
> rid48202
> rid48203
> rid48204
> rid48205
> rid48206
> rid48207
> rid48208
> rid48209
> rid48210
> rid48211
> rid48212
> rid48213
> rid48214
> rid48215
> rid48216
> rid48217
> rid48218
> rid48219
> rid48220
> rid48221
> rid48222
> rid48223
> rid48224
> rid48225
> rid48226
> rid48227
> rid48228
> rid48229
> rid48230
> rid48231
> rid48232
> rid48233
> rid48234
> rid48235
> rid48236
> rid48237
> rid48238
> rid48239
> rid48240
> rid48241
> rid48242
> rid48243
> rid48244
> rid48245
> rid48246
> rid48247
> rid48248
> rid48249
> rid48250
> rid48251
> rid48252
> rid48253
> rid48254
> rid48255
> rid48256
> rid48257
> rid48258
> rid48259
> rid48260
> rid48261
> rid48262
> rid48263
> rid48264
> rid48265
> rid48266
> rid48267
> rid48268
> rid48269
> rid48270
> rid48271
> rid48272
> rid48273
> rid48274
> rid48275
> rid48276
> rid48277
> rid48278
> rid48279
> rid48280
> rid48281
> rid48282
> rid48283
> rid48284
> rid48285
> rid48286
> rid48287
> rid48288
> rid48289
> rid48290
> rid48291
> rid48292
> rid48293
> rid48294
> rid48295
> rid48296
> rid48297
> rid48298
> rid48299
> rid48300
> rid48301
> rid48302
> rid48303
> rid48304
> rid48305
> rid48306
> rid48307
> rid48308
> rid48309
> rid48310
> rid48311
> rid48312
> rid48313
> rid48314
> rid48315
> rid48316
> rid48317
> rid48318
> rid48319
> rid48320
> rid48321
> rid48322
> rid48323
> rid48324
> rid48325
> rid48326
> rid48327
> rid48328
> rid48329
> rid48330
> rid48331
> rid48332
> rid48333
> rid48334
> rid48335
> rid48336
> rid48337
> rid48338
> rid48339
> rid48340
> rid48341
> rid48342
> rid48343
> rid48344
> rid48345
> rid48346
> rid48347
> rid48348
> rid48349
> rid48350
> rid48351
> rid48352
> rid48353
> rid48354
> rid48355
> rid48356
> rid48357
> rid48358
> rid48359
> rid48360
> rid48361
> rid48362
> rid48363
> rid48364
> rid48365
> rid48366
> rid48367
> rid48368
> rid48369
> rid48370
> rid48371
> rid48372
> rid48373
> rid48374
> rid48375
> rid48376
> rid48377
> rid48378
> rid48379
> rid48380
> rid48381
> rid48382
> rid48383
> rid48384
> rid48385
> rid48386
> rid48387
> rid48388
> rid48389
> rid48390
> rid48391
> rid48392
> rid48393
> rid48394
> rid48395
> rid48396
> rid48397
> rid48398
> rid48399
> rid48400
> rid48401
> rid48402
> rid48403
> rid48404
> rid48405
> rid48406
> rid48407
> rid48408
> rid48409
> rid48410
> rid48411
> rid48412
> rid48413
> rid48414
> rid48415
> rid48416
> rid48417
> rid48418
> rid48419
> rid48420
> rid48421
> rid48422
> rid48423
> rid48424
> rid48425
> rid48426
> rid48427
> rid48428
> rid48429
> rid48430
> rid48431
> rid48432
> rid48433
> rid48434
> rid48435
> rid48436
> rid48437
> rid48438
> rid48439
> rid48440
> rid48441
> rid48442
> rid48443
> rid48444
> rid48445
> rid48446
> rid48447
> rid48448
> rid48449
> rid48450
> rid48451
> rid48452
> rid48453
> rid48454
> rid48455
> rid48456
> rid48457
> rid48458
> rid48459
> rid48460
> rid48461
> rid48462
> rid48463
> rid48464
> rid48465
> rid48466
> rid48467
> rid48468
> rid48469
> rid48470
> rid48471
> rid48472
> rid48473
> rid48474
> rid48475
> rid48476
> rid48477
> rid48478
> rid48479
> rid48480
> rid48481
> rid48482
> rid48483
> rid48484
> rid48485
> rid48486
> rid48487
> rid48488
> rid48489
> rid48490
> rid48491
> rid48492
> rid48493
> rid48494
> rid48495
> rid48496
> rid48497
> rid48498
> rid48499
> rid48500
> rid48501
> rid48502
> rid48503
> rid48504
> rid48505
> rid48506
> rid48507
> rid48508
> rid48509
> rid48510
> rid48511
> rid48512
> rid48513
> rid48514
> rid48515
> rid48516
> rid48517
> rid48518
> rid48519
> rid48520
> rid48521
> rid48522
> rid48523
> rid48524
> rid48525
> rid48526
> rid48527
> rid48528
> rid48529
> rid48530
> rid48531
> rid48532
> rid48533
> rid48534
> rid48535
> rid48536
> rid48537
> rid48538
> rid48539
> rid48540
> rid48541
> rid48542
> rid48543
> rid48544
> rid48545
> rid48546
> rid48547
> rid48548
> rid48549
> rid48550
> rid48551
> rid48552
> rid48553
> rid48554
> rid48555
> rid48556
> rid48557
> rid48558
> rid48559
> rid48560
> rid48561
> rid48562
> rid48563
> rid48564
> rid48565
> rid48566
> rid48567
> rid48568
> rid48569
> rid48570
> rid48571
> rid48572
> rid48573
> rid48574
> rid48575
> rid48576
> rid48577
> rid48578
> rid48579
> rid48580
> rid48581
> rid48582
> rid48583
> rid48584
> rid48585
> rid48586
> rid48587
> rid48588
> rid48589
> rid48590
> rid48591
> rid48592
> rid48593
> rid48594
> rid48595
> rid48596
> rid48597
> rid48598
> rid48599
> rid48600
> rid48601
> rid48602
> rid48603
> rid48604
> rid48605
> rid48606
> rid48607
> rid48608
> rid48609
> rid48610
> rid48611
> rid48612
> rid48613
> rid48614
> rid48615
> rid48616
> rid48617
> rid48618
> rid48619
> rid48620
> rid48621
> rid48622
> rid48623
> rid48624
> rid48625
> rid48626
> rid48627
> rid48628
> rid48629
> rid48630
> rid48631
> rid48632
> rid48633
> rid48634
> rid48635
> rid48636
> rid48637
> rid48638
> rid48639
> rid48640
> rid48641
> rid48642
> rid48643
> rid48644
> rid48645
> rid48646
> rid48647
> rid48648
> rid48649
> rid48650
> rid48651
> rid48652
> rid48653
> rid48654
> rid48655
> rid48656
> rid48657
> rid48658
> rid48659
> rid48660
> rid48661
> rid48662
> rid48663
> rid48664
> rid48665
> rid48666
> rid48667
> rid48668
> rid48669
> rid48670
> rid486FOO = 0
71
> rid48672
> rid48673
> rid48674
> rid48675
> rid48676
> rid48677
> rid48678
> rid48679
> rid48680
> rid48681
> rid48682
> rid48683
> rid48684
> rid48685
> rid48686
> rid48687
> rid48688
> rid48689
> rid48690
> rid48691
> rid48692
> rid48693
> rid48694
> rid48695
> rid48696
> rid48697
> rid48698
> rid48699
> rid48700
> rid48701
> rid48702
> rid48703
> rid48704
> rid48705
> rid48706
> rid48707
> rid48708
> rid48709
> rid48710
> rid48711
> rid48712
> rid48713
> rid48714
> rid48715
> rid48716
> rid48717
> rid48718
> rid48719
> rid48720
> rid48721
> rid48722
> rid48723
> rid48724
> rid48725
> rid48726
> rid48727
> rid48728
> rid48729
> rid48730
> rid48731
> rid48732
> rid48733
> rid48734
> rid48735
> rid48736
> rid48737
> rid48738
> rid48739
> rid48740
> rid48741
> rid48742
> rid48743
> rid48744
> rid48745
> rid48746
> rid48747
> rid48748
> rid48749
> rid48750
> rid48751
> rid48752
> rid48753
> rid48754
> rid48755
> rid48756
> rid48757
> rid48758
> rid48759
> rid48760
> rid48761
> rid48762
> rid48763
> rid48764
> rid48765
> rid48766
> rid48767
> rid48768
> rid48769
> rid48770
> rid48771
> rid48772
> rid48773
> rid48774
> rid48775
> rid48776
> rid48777
> rid48778
> rid48779
> rid48780
> rid48781
> rid48782
> rid48783
> rid48784
> rid48785
> rid48786
> rid48787
> rid48788
> rid48789
> rid48790
> rid48791
> rid48792
> rid48793
> rid48794
> rid48795
> rid48796
> rid48797
> rid48798
> rid48799
> rid48800
> rid48801
> rid48802
> rid48803
> rid48804
> rid48805
> rid48806
> rid48807
> rid48808
> rid48809
> rid48810
> rid48811
> rid48812
> rid48813
> rid48814
> rid48815
> rid48816
> rid48817
> rid48818
> rid48819
> rid48820
> rid48821
> rid48822
> rid48823
> rid48824
> rid48825
> rid48826
> rid48827
> rid48828
> rid48829
> rid48830
> rid48831
> rid48832
> rid48833
> rid48834
> rid48835
> rid48836
> rid48837
> rid48838
> rid48839
> rid48840
> rid48841
> rid48842
> rid48843
> rid48844
> rid48845
> rid48846
> rid48847
> rid48848
> rid48849
> rid48850
> rid48851
> rid48852
> rid48853
> rid48854
> rid48855
> rid48856
> rid48857
> rid48858
> rid48859
> rid48860
> rid48861
> rid48862
> rid48863
> rid48864
> rid48865
> rid48866
> rid48867
> rid48868
> rid48869
> rid48870
> rid48871
> rid48872
> rid48873
> rid48874
> rid48875
> rid48876
> rid48877
> rid48878
> rid48879
> rid48880
> rid48881
> rid48882
> rid48883
> rid48884
> rid48885
> rid48886
> rid48887
> rid48888
> rid48889
> rid48890
> rid48891
> rid48892
> rid48893
> rid48894
> rid48895
> rid48896
> rid48897
> rid48898
> rid48899
> rid48900
> rid48901
> rid48902
> rid48903
> rid48904
> rid48905
> rid48906
> rid48907
> rid48908
> rid48909
> rid48910
> rid48911
> rid48912
> rid48913
> rid48914
> rid48915
> rid48916
> rid48917
> rid48918
> rid48919
> rid48920
> rid48921
> rid48922
> rid48923
> rid48924
> rid48925
> rid48926
> rid48927
> rid48928
> rid48929
> rid48930
> rid48931
> rid48932
> rid48933
> rid48934
> rid48935
> rid48936
> rid48937
> rid48938
> rid48939
> rid48940
> rid48941
> rid48942
> rid48943
> rid48944
> rid48945
> rid48946
> rid48947
> rid48948
> rid48949
> rid48950
> rid48951
> rid48952
> rid48953
> rid48954
> rid48955
> rid48956
> rid48957
> rid48958
> rid48959
> rid48960
> rid48961
> rid48962
> rid48963
> rid48964
> rid48965
> rid48966
> rid48967
> rid48968
> rid48969
> rid48970
> rid48971
> rid48972
> rid48973
> rid48974
> rid48975
> rid48976
> rid48977
> rid48978
> rid48979
> rid48980
> rid48981
> rid48982
> rid48983
> rid48984
> rid48985
> rid48986
> rid48987
> rid48988
> rid48989
> rid48990
> rid48991
> rid48992
> rid48993
> rid48994
> rid48995
> rid48996
> rid48997
> rid48998
> rid48999
> rid49000
> rid49001
> rid49002
> rid49003
> rid49004
> rid49005
> rid49006
> rid49007
> rid49008
> rid49009
> rid49010
> rid49011
> rid49012
> rid49013
> rid49014
> rid49015
> rid49016
> rid49017
> rid49018
> rid49019
> rid49020
> rid49021
> rid49022
> rid49023
> rid49024
> rid49025
> rid49026
> rid49027
> rid49028
> rid49029
> rid49030
> rid49031
> rid49032
> rid49033
> rid49034
> rid49035
> rid49036
> rid49037
> rid49038
> rid49039
> rid49040
> rid49041
> rid49042
> rid49043
> rid49044
> rid49045
> rid49046
> rid49047
> rid49048
> rid49049
> rid49050
> rid49051
> rid49052
> rid49053
> rid49054
> rid49055
> rid49056
> rid49057
> rid49058
> rid49059
> rid49060
> rid49061
> rid49062
> rid49063
> rid49064
> rid49065
> rid49066
> rid49067
> rid49068
> rid49069
> rid49070
> rid49071
> rid49072
> rid49073
> rid49074
> rid49075
> rid49076
> rid49077
> rid49078
> rid49079
> rid49080
> rid49081
> rid49082
> rid49083
> rid49084
> rid49085
> rid49086
> rid49087
> rid49088
> rid49089
> rid49090
> rid49091
> rid49092
> rid49093
> rid49094
> rid49095
> rid49096
> rid49097
> rid49098
> rid49099
> rid49100
> rid49101
> rid49102
> rid49103
> rid49104
> rid49105
> rid49106
> rid49107
> rid49108
> rid49109
> rid49110
> rid49111
> rid49112
> rid49113
> rid49114
> rid49115
> rid49116
> rid49117
> rid49118
> rid49119
> rid49120
> rid49121
> rid49122
> rid49123
> rid49124
> rid49125
> rid49126
> rid49127
> rid49128
> rid49129
> rid49130
> rid49131
> rid49132
> rid49133
> rid49134
> rid49135
> rid49136
> rid49137
> rid49138
> rid49139
> rid49140
> rid49141
> rid49142
> rid49143
> rid49144
> rid49145
> rid49146
> rid49147
> rid49148
> rid49149
> rid49150
> rid49151
> rid49152
> rid49153
> rid49154
> rid49155
> rid49156
> rid49157
> rid49158
> rid49159
> rid49160
> rid49161
> rid49162
> rid49163
> rid49164
> rid49165
> rid49166
> rid49167
> rid49168
> rid49169
> rid49170
> rid49171
> rid49172
> rid49173
> rid49174
> rid49175
> rid49176
> rid49177
> rid49178
> rid49179
> rid49180
> rid49181
> rid49182
> rid49183
> rid49184
> rid49185
> rid49186
> rid49187
> rid49188
> rid49189
> rid49190
> rid49191
> rid49192
> rid49193
> rid49194
> rid49195
> rid49196
> rid49197
> rid49198
> rid49199
> rid49200
> rid49201
> rid49202
> rid49203
> rid49204
> rid49205
> rid49206
> rid49207
> rid49208
> rid49209
> rid49210
> rid49211
> rid49212
> rid49213
> rid49214
> rid49215
> rid49216
> rid49217
> rid49218
> rid49219
> rid49220
> rid49221
> rid49222
> rid49223
> rid49224
> rid49225
> rid49226
> rid49227
> rid49228
> rid49229
> rid49230
> rid49231
> rid49232
> rid49233
> rid49234
> rid49235
> rid49236
> rid49237
> rid49238
> rid49239
> rid49240
> rid49241
> rid49242
> rid49243
> rid49244
> rid49245
> rid49246
> rid49247
> rid49248
> rid49249
> rid49250
> rid49251
> rid49252
> rid49253
> rid49254
> rid49255
> rid49256
> rid49257
> rid49258
> rid49259
> rid49260
> rid49261
> rid49262
> rid49263
> rid49264
> rid49265
> rid49266
> rid49267
> rid49268
> rid49269
> rid49270
> rid49271
> rid49272
> rid49273
> rid49274
> rid49275
> rid49276
> rid49277
> rid49278
> rid49279
> rid49280
> rid49281
> rid49282
> rid49283
> rid49284
> rid49285
> rid49286
> rid49287
> rid49288
> rid49289
> rid49290
> rid49291
> rid49292
> rid49293
> rid49294
> rid49295
> rid49296
> rid49297
> rid49298
> rid49299
> rid49300
> rid49301
> rid49302
> rid49303
> rid49304
> rid49305
> rid49306
> rid49307
> rid49308
> rid49309
> rid49310
> rid49311
> rid49312
> rid49313
> rid49314
> rid49315
> rid49316
> rid49317
> rid49318
> rid49319
> rid49320
> rid49321
> rid49322
> rid49323
> rid49324
> rid49325
> rid49326
> rid49327
> rid49328
> rid49329
> rid49330
> rid49331
> rid49332
> rid49333
> rid49334
> rid49335
> rid49336
> rid49337
> rid49338
> rid49339
> rid49340
> rid49341
> rid49342
> rid49343
> rid49344
> rid49345
> rid49346
> rid49347
> rid49348
> rid49349
> rid49350
> rid49351
> rid49352
> rid49353
> rid49354
> rid49355
> rid49356
> rid49357
> rid49358
> rid49359
> rid49360
> rid49361
> rid49362
> rid49363
> rid49364
> rid49365
> rid49366
> rid49367
> rid49368
> rid49369
> rid49370
> rid49371
> rid49372
> rid49373
> rid49374
> rid49375
> rid49376
> rid49377
> rid49378
> rid49379
> rid49380
> rid49381
> rid49382
> rid49383
> rid49384
> rid49385
> rid49386
> rid49387
> rid49388
> rid49389
> rid49390
> rid49391
> rid49392
> rid49393
> rid49394
> rid49395
> rid49396
> rid49397
> rid49398
> rid49399
> rid49400
> rid49401
> rid49402
> rid49403
> rid49404
> rid49405
> rid49406
> rid49407
> rid49408
> rid49409
> rid49410
> rid49411
> rid49412
> rid49413
> rid49414
> rid49415
> rid49416
> rid49417
> rid49418
> rid49419
> rid49420
> rid49421
> rid49422
> rid49423
> rid49424
> rid49425
> rid49426
> rid49427
> rid49428
> rid49429
> rid49430
> rid49431
> rid49432
> rid49433
> rid49434
> rid49435
> rid49436
> rid49437
> rid49438
> rid49439
> rid49440
> rid49441
> rid49442
> rid49443
> rid49444
> rid49445
> rid49446
> rid49447
> rid49448
> rid49449
> rid49450
> rid49451
> rid49452
> rid49453
> rid49454
> rid49455
> rid49456
> rid49457
> rid49458
> rid49459
> rid49460
> rid49461
> rid49462
> rid49463
> rid49464
> rid49465
> rid49466
> rid49467
> rid49468
> rid49469
> rid49470
> rid49471
> rid49472
> rid49473
> rid49474
> rid49475
> rid49476
> rid49477
> rid49478
> rid49479
> rid49480
> rid49481
> rid49482
> rid49483
> rid49484
> rid49485
> rid49486
> rid49487
> rid49488
> rid49489
> rid49490
> rid49491
> rid49492
> rid49493
> rid49494
> rid49495
> rid49496
> rid49497
> rid49498
> rid49499
> rid49500
> rid49501
> rid49502
> rid49503
> rid49504
> rid49505
> rid49506
> rid49507
> rid49508
> rid49509
> rid49510
> rid49511
> rid49512
> rid49513
> rid49514
> rid49515
> rid49516
> rid49517
> rid49518
> rid49519
> rid49520
> rid49521
> rid49522
> rid49523
> rid49524
> rid49525
> rid49526
> rid49527
> rid49528
> rid49529
> rid49530
> rid49531
> rid49532
> rid49533
> rid49534
> rid49535
> rid49536
> rid49537
> rid49538
> rid49539
> rid49540
> rid49541
> rid49542
> rid49543
> rid49544
> rid49545
> rid49546
> rid49547
> rid49548
> rid49549
> rid49550
> rid49551
> rid49552
> rid49553
> rid49554
> rid49555
> rid49556
> rid49557
> rid49558
> rid49559
> rid49560
> rid49561
> rid49562
> rid49563
> rid49564
> rid49565
> rid49566
> rid49567
> rid49568
> rid49569
> rid49570
> rid49571
> rid49572
> rid49573
> rid49574
> rid49575
> rid49576
> rid49577
> rid49578
> rid49579
> rid49580
> rid49581
> rid49582
> rid49583
> rid49584
> rid49585
> rid49586
> rid49587
> rid49588
> rid49589
> rid49590
> rid49591
> rid49592
> rid49593
> rid49594
> rid49595
> rid49596
> rid49597
> rid49598
> rid49599
> rid49600
> rid49601
> rid49602
> rid49603
> rid49604
> rid49605
> rid49606
> rid49607
> rid49608
> rid49609
> rid49610
> rid49611
> rid49612
> rid49613
> rid49614
> rid49615
> rid49616
> rid49617
> rid49618
> rid49619
> rid49620
> rid49621
> rid49622
> rid49623
> rid49624
> rid49625
> rid49626
> rid49627
> rid49628
> rid49629
> rid49630
> rid49631
> rid49632
> rid49633
> rid49634
> rid49635
> rid49636
> rid49637
> rid49638
> rid49639
> rid49640
> rid49641
> rid49642
> rid49643
> rid49644
> rid49645
> rid49646
> rid49647
> rid49648
> rid49649
> rid49650
> rid49651
> rid49652
> rid49653
> rid49654
> rid49655
> rid49656
> rid49657
> rid49658
> rid49659
> rid49660
> rid49661
> rid49662
> rid49663
> rid49664
> rid49665
> rid49666
> rid49667
> rid49668
> rid49669
> rid49670
> rid49671
> rid49672
> rid49673
> rid49674
> rid49675
> rid49676
> rid49677
> rid49678
> rid49679
> rid49680
> rid49681
> rid49682
> rid49683
> rid49684
> rid49685
> rid49686
> rid49687
> rid49688
> rid49689
> rid49690
> rid49691
> rid49692
> rid49693
> rid49694
> rid49695
> rid49696
> rid49697
> rid49698
> rid49699
> rid49700
> rid49701
> rid49702
> rid49703
> rid49704
> rid49705
> rid49706
> rid49707
> rid49708
> rid49709
> rid49710
> rid49711
> rid49712
> rid49713
> rid49714
> rid49715
> rid49716
> rid49717
> rid49718
> rid49719
> rid49720
> rid49721
> rid49722
> rid49723
> rid49724
> rid49725
> rid49726
> rid49727
> rid49728
> rid49729
> rid49730
> rid49731
> rid49732
> rid49733
> rid49734
> rid49735
> rid49736
> rid49737
> rid49738
> rid49739
> rid49740
> rid49741
> rid49742
> rid49743
> rid49744
> rid49745
> rid49746
> rid49747
> rid49748
> rid49749
> rid49750
> rid49751
> rid49752
> rid49753
> rid49754
> rid49755
> rid49756
> rid49757
> rid49758
> rid49759
> rid49760
> rid49761
> rid49762
> rid49763
> rid49764
> rid49765
> rid49766
> rid49767
> rid49768
> rid49769
> rid49770
> rid49771
> rid49772
> rid49773
> rid49774
> rid49775
> rid49776
> rid49777
> rid49778
> rid49779
> rid49780
> rid49781
> rid49782
> rid49783
> rid49784
> rid49785
> rid49786
> rid49787
> rid49788
> rid49789
> rid49790
> rid49791
> rid49792
> rid49793
> rid49794
> rid49795
> rid49796
> rid49797
> rid49798
> rid49799
> rid49800
> rid49801
> rid49802
> rid49803
> rid49804
> rid49805
> rid49806
> rid49807
> rid49808
> rid49809
> rid49810
> rid49811
> rid49812
> rid49813
> rid49814
> rid49815
> rid49816
> rid49817
> rid49818
> rid49819
> rid49820
> rid49821
> rid49822
> rid49823
> rid49824
> rid49825
> rid49826
> rid49827
> rid49828
> rid49829
> rid49830
> rid49831
> rid49832
> rid49833
> rid49834
> rid49835
> rid49836
> rid49837
> rid49838
> rid49839
> rid49840
> rid49841
> rid49842
> rid49843
> rid49844
> rid49845
> rid49846
> rid49847
> rid49848
> rid49849
> rid49850
> rid49851
> rid49852
> rid49853
> rid49854
> rid49855
> rid49856
> rid49857
> rid49858
> rid49859
> rid49860
> rid49861
> rid49862
> rid49863
> rid49864
> rid49865
> rid49866
> rid49867
> rid49868
> rid49869
> rid49870
> rid49871
> rid49872
> rid49873
> rid49874
> rid49875
> rid49876
> rid49877
> rid49878
> rid49879
> rid49880
> rid49881
> rid49882
> rid49883
> rid49884
> rid49885
> rid49886
> rid49887
> rid49888
> rid49889
> rid49890
> rid49891
> rid49892
> rid49893
> rid49894
> rid49895
> rid49896
> rid49897
> rid49898
> rid49899
> rid49900
> rid49901
> rid49902
> rid49903
> rid49904
> rid49905
> rid49906
> rid49907
> rid49908
> rid49909
> rid49910
> rid49911
> rid49912
> rid49913
> rid49914
> rid49915
> rid49916
> rid49917
> rid49918
> rid49919
> rid49920
> rid49921
> rid49922
> rid49923
> rid49924
> rid49925
> rid49926
> rid49927
> rid49928
> rid49929
> rid49930
> rid49931
> rid49932
> rid49933
> rid49934
> rid49935
> rid49936
> rid49937
> rid49938
> rid49939
> rid49940
> rid49941
> rid49942
> rid49943
> rid49944
> rid49945
> rid49946
> rid49947
> rid49948
> rid49949
> rid49950
> rid49951
> rid49952
> rid49953
> rid49954
> rid49955
> rid49956
> rid49957
> rid49958
> rid49959
> rid49960
> rid49961
> rid49962
> rid49963
> rid49964
> rid49965
> rid49966
> rid49967
> rid49968
> rid49969
> rid49970
> rid49971
> rid49972
> rid49973
> rid49974
> rid49975
> rid49976
> rid49977
> rid49978
> rid49979
> rid49980
> rid49981
> rid49982
> rid49983
> rid49984
> rid49985
> rid49986
> rid49987
> rid49988
> rid49989
> rid49990
> rid49991
> rid49992
> rid49993
> rid49994
> rid49995
> rid49996
> rid49997
> rid49998
> rid49999
> rid50000
GPGPU-Sim: exit_simulation called
GPGPU-Sim: simulation thread signaled exit
