

        *** GPGPU-Sim Simulator Version 3.2.2  [build 17315] ***


GPGPU-Sim PTX: simulation mode 0 (can change with PTX_SIM_MODE_FUNC environment variable:
               1=functional simulation only, 0=detailed performance simulator)
GPGPU-Sim: Configuration options:

-network_mode                           1 # Interconnection network mode
-inter_config_file   config_fermi_islip.icnt # Interconnection network config file
-gpgpu_ptx_use_cuobjdump                    1 # Use cuobjdump to extract ptx and sass from binaries
-gpgpu_experimental_lib_support                    0 # Try to extract code from cuda libraries [Broken because of unknown cudaGetExportTable]
-gpgpu_ptx_convert_to_ptxplus                    1 # Convert SASS (native ISA) to ptxplus and run ptxplus
-gpgpu_ptx_force_max_capability                   20 # Force maximum compute capability
-gpgpu_ptx_inst_debug_to_file                    0 # Dump executed instructions' debug information to file
-gpgpu_ptx_inst_debug_file       inst_debug.txt # Executed instructions' debug output file
-gpgpu_ptx_inst_debug_thread_uid                    1 # Thread UID for executed instructions' debug output
-gpgpu_simd_model                       1 # 1 = post-dominator
-gpgpu_shader_core_pipeline              1536:32 # shader core pipeline config, i.e., {<nthread>:<warpsize>}
-gpgpu_tex_cache:l1  4:128:24,L:R:m:N,F:128:4,128:2 # per-shader L1 texture cache  (READ-ONLY) config  {<nsets>:<bsize>:<assoc>,<rep>:<wr>:<alloc>:<wr_alloc>,<mshr>:<N>:<merge>,<mq>:<rf>}
-gpgpu_const_cache:l1 64:64:2,L:R:f:N,A:2:32,4 # per-shader L1 constant memory cache  (READ-ONLY) config  {<nsets>:<bsize>:<assoc>,<rep>:<wr>:<alloc>:<wr_alloc>,<mshr>:<N>:<merge>,<mq>} 
-gpgpu_cache:il1     4:128:4,L:R:f:N,A:2:32,4 # shader L1 instruction cache config  {<nsets>:<bsize>:<assoc>,<rep>:<wr>:<alloc>:<wr_alloc>,<mshr>:<N>:<merge>,<mq>} 
-gpgpu_cache:dl1     32:128:4,L:L:m:N,A:32:8,8 # per-shader L1 data cache config  {<nsets>:<bsize>:<assoc>,<rep>:<wr>:<alloc>:<wr_alloc>,<mshr>:<N>:<merge>,<mq> | none}
-gpgpu_cache:dl1PrefL1                 none # per-shader L1 data cache config  {<nsets>:<bsize>:<assoc>,<rep>:<wr>:<alloc>:<wr_alloc>,<mshr>:<N>:<merge>,<mq> | none}
-gpgpu_cache:dl1PreShared                 none # per-shader L1 data cache config  {<nsets>:<bsize>:<assoc>,<rep>:<wr>:<alloc>:<wr_alloc>,<mshr>:<N>:<merge>,<mq> | none}
-gmem_skip_L1D                          0 # global memory access skip L1D cache (implements -Xptxas -dlcm=cg, default=no skip)
-gpgpu_perfect_mem                      0 # enable perfect memory mode (no cache miss)
-n_regfile_gating_group                    4 # group of lanes that should be read/written together)
-gpgpu_clock_gated_reg_file                    0 # enable clock gated reg file for power calculations
-gpgpu_clock_gated_lanes                    0 # enable clock gated lanes for power calculations
-gpgpu_shader_registers                32768 # Number of registers per shader core. Limits number of concurrent CTAs. (default 8192)
-gpgpu_shader_cta                       8 # Maximum number of concurrent CTAs in shader (default 8)
-gpgpu_n_clusters                      14 # number of processing clusters
-gpgpu_n_cores_per_cluster                    1 # number of simd cores per cluster
-gpgpu_n_cluster_ejection_buffer_size                    8 # number of packets in ejection buffer
-gpgpu_n_ldst_response_buffer_size                    2 # number of response packets in ld/st unit ejection buffer
-gpgpu_shmem_size                   16384 # Size of shared memory per shader core (default 16kB)
-gpgpu_shmem_size                   49152 # Size of shared memory per shader core (default 16kB)
-gpgpu_shmem_size_PrefL1                16384 # Size of shared memory per shader core (default 16kB)
-gpgpu_shmem_size_PrefShared                16384 # Size of shared memory per shader core (default 16kB)
-gpgpu_shmem_num_banks                   32 # Number of banks in the shared memory in each shader core (default 16)
-gpgpu_shmem_limited_broadcast                    0 # Limit shared memory to do one broadcast per cycle (default on)
-gpgpu_shmem_warp_parts                    1 # Number of portions a warp is divided into for shared memory bank conflict check 
-gpgpu_warpdistro_shader                   -1 # Specify which shader core to collect the warp size distribution from
-gpgpu_warp_issue_shader                    0 # Specify which shader core to collect the warp issue distribution from
-gpgpu_local_mem_map                    1 # Mapping from local memory space address to simulated GPU physical address space (default = enabled)
-gpgpu_num_reg_banks                   16 # Number of register banks (default = 8)
-gpgpu_reg_bank_use_warp_id                    0 # Use warp ID in mapping registers to banks (default = off)
-gpgpu_operand_collector_num_units_sp                    6 # number of collector units (default = 4)
-gpgpu_operand_collector_num_units_sfu                    8 # number of collector units (default = 4)
-gpgpu_operand_collector_num_units_mem                    2 # number of collector units (default = 2)
-gpgpu_operand_collector_num_units_gen                    0 # number of collector units (default = 0)
-gpgpu_operand_collector_num_in_ports_sp                    2 # number of collector unit in ports (default = 1)
-gpgpu_operand_collector_num_in_ports_sfu                    1 # number of collector unit in ports (default = 1)
-gpgpu_operand_collector_num_in_ports_mem                    1 # number of collector unit in ports (default = 1)
-gpgpu_operand_collector_num_in_ports_gen                    0 # number of collector unit in ports (default = 0)
-gpgpu_operand_collector_num_out_ports_sp                    2 # number of collector unit in ports (default = 1)
-gpgpu_operand_collector_num_out_ports_sfu                    1 # number of collector unit in ports (default = 1)
-gpgpu_operand_collector_num_out_ports_mem                    1 # number of collector unit in ports (default = 1)
-gpgpu_operand_collector_num_out_ports_gen                    0 # number of collector unit in ports (default = 0)
-gpgpu_coalesce_arch                   13 # Coalescing arch (default = 13, anything else is off for now)
-gpgpu_num_sched_per_core                    2 # Number of warp schedulers per core
-gpgpu_max_insn_issue_per_warp                    1 # Max number of instructions that can be issued per warp in one cycle by scheduler
-gpgpu_simt_core_sim_order                    1 # Select the simulation order of cores in a cluster (0=Fix, 1=Round-Robin)
-gpgpu_pipeline_widths        2,1,1,2,1,1,2 # Pipeline widths ID_OC_SP,ID_OC_SFU,ID_OC_MEM,OC_EX_SP,OC_EX_SFU,OC_EX_MEM,EX_WB
-gpgpu_num_sp_units                     2 # Number of SP units (default=1)
-gpgpu_num_sfu_units                    1 # Number of SF units (default=1)
-gpgpu_num_mem_units                    1 # Number if ldst units (default=1) WARNING: not hooked up to anything
-gpgpu_scheduler                      gto # Scheduler configuration: < lrr | gto | two_level_active > If two_level_active:<num_active_warps>:<inner_prioritization>:<outer_prioritization>For complete list of prioritization values see shader.h enum scheduler_prioritization_typeDefault: gto
-gpgpu_dram_scheduler                    1 # 0 = fifo, 1 = FR-FCFS (defaul)
-gpgpu_dram_partition_queues              8:8:8:8 # i2$:$2d:d2$:$2i
-l2_ideal                               0 # Use a ideal L2 cache that always hit
-gpgpu_cache:dl2     64:128:8,L:B:m:W,A:32:4,4:0,32 # unified banked L2 data cache config  {<nsets>:<bsize>:<assoc>,<rep>:<wr>:<alloc>:<wr_alloc>,<mshr>:<N>:<merge>,<mq>}
-gpgpu_cache:dl2_texture_only                    0 # L2 cache used for texture only
-gpgpu_n_mem                            6 # number of memory modules (e.g. memory controllers) in gpu
-gpgpu_n_sub_partition_per_mchannel                    2 # number of memory subpartition in each memory module
-gpgpu_n_mem_per_ctrlr                    2 # number of memory chips per memory controller
-gpgpu_memlatency_stat                    0 # track and display latency statistics 0x2 enables MC, 0x4 enables queue logs
-gpgpu_frfcfs_dram_sched_queue_size                   16 # 0 = unlimited (default); # entries per chip
-gpgpu_dram_return_queue_size                  114 # 0 = unlimited (default); # entries per chip
-gpgpu_dram_buswidth                    4 # default = 4 bytes (8 bytes per cycle at DDR)
-gpgpu_dram_burst_length                    8 # Burst length of each DRAM request (default = 4 data bus cycle)
-dram_data_command_freq_ratio                    4 # Frequency ratio between DRAM data bus and command bus (default = 2 times, i.e. DDR)
-gpgpu_dram_timing_opt nbk=16:CCD=2:RRD=6:RCD=12:RAS=28:RP=12:RC=40: CL=12:WL=4:CDLR=5:WR=12:nbkgrp=4:CCDL=3:RTPL=2 # DRAM timing parameters = {nbk:tCCD:tRRD:tRCD:tRAS:tRP:tRC:CL:WL:tCDLR:tWR:nbkgrp:tCCDL:tRTPL}
-rop_latency                          120 # ROP queue latency (default 85)
-dram_latency                         100 # DRAM latency (default 30)
-gpgpu_mem_addr_mapping dramid@8;00000000.00000000.00000000.00000000.0000RRRR.RRRRRRRR.BBBCCCCB.CCSSSSSS # mapping memory address to dram model {dramid@<start bit>;<memory address map>}
-gpgpu_mem_addr_test                    0 # run sweep test to check address mapping for aliased address
-gpgpu_mem_address_mask                    1 # 0 = old addressing mask, 1 = new addressing mask, 2 = new add. mask + flipped bank sel and chip sel bits
-gpuwattch_xml_file         gpuwattch.xml # GPUWattch XML file
-power_simulation_enabled                    0 # Turn on power simulator (1=On, 0=Off)
-power_per_cycle_dump                    0 # Dump detailed power output each cycle
-power_trace_enabled                    0 # produce a file for the power trace (1=On, 0=Off)
-power_trace_zlevel                     6 # Compression level of the power trace output log (0=no comp, 9=highest)
-steady_power_levels_enabled                    0 # produce a file for the steady power levels (1=On, 0=Off)
-steady_state_definition                  8:4 # allowed deviation:number of samples
-gpgpu_max_cycle                        0 # terminates gpu simulation early (0 = no limit)
-gpgpu_max_insn                         0 # terminates gpu simulation early (0 = no limit)
-gpgpu_max_cta                          0 # terminates gpu simulation early (0 = no limit)
-gpgpu_runtime_stat             5000000:0 # display runtime statistics such as dram utilization {<freq>:<flag>}
-liveness_message_freq                    1 # Minimum number of seconds between simulation liveness messages (0 = always print)
-gpgpu_flush_l1_cache                    0 # Flush L1 cache at the end of each kernel call
-gpgpu_flush_l2_cache                    0 # Flush L2 cache at the end of each kernel call
-gpgpu_deadlock_detect                    1 # Stop the simulation at deadlock (1=on (default), 0=off)
-gpgpu_ptx_instruction_classification                    0 # if enabled will classify ptx instruction types per kernel (Max 255 kernels now)
-gpgpu_ptx_sim_mode                     0 # Select between Performance (default) or Functional simulation (1)
-gpgpu_clock_domains 575.0:575.0:575.0:750.0 # Clock Domain Frequencies in MhZ {<Core Clock>:<ICNT Clock>:<L2 Clock>:<DRAM Clock>}
-gpgpu_max_concurrent_kernel                    8 # maximum kernels that can run concurrently on GPU
-gpgpu_cflog_interval                    0 # Interval between each snapshot in control flow logger
-visualizer_enabled                     0 # Turn on visualizer output (1=On, 0=Off)
-visualizer_outputfile                 NULL # Specifies the output log file for visualizer
-visualizer_zlevel                      6 # Compression level of the visualizer output log (0=no comp, 9=highest)
-trace_enabled                          0 # Turn on traces
-trace_components                    none # comma seperated list of traces to enable. Complete list found in trace_streams.tup. Default none
-trace_sampling_core                    0 # The core which is printed using CORE_DPRINTF. Default 0
-trace_sampling_memory_partition                   -1 # The memory partition which is printed using MEMPART_DPRINTF. Default -1 (i.e. all)
-enable_ptx_file_line_stats                    0 # Turn on PTX source line statistic profiling. (1 = On)
-ptx_line_stats_filename gpgpu_inst_stats.txt # Output file for PTX source line statistics.
-save_embedded_ptx                      0 # saves ptx files embedded in binary as <n>.ptx
-keep                                   0 # keep intermediate files created by GPGPU-Sim when interfacing with external programs
-gpgpu_ptx_save_converted_ptxplus                    1 # Saved converted ptxplus to a file
-ptx_opcode_latency_int         4,13,4,5,145 # Opcode latencies for integers <ADD,MAX,MUL,MAD,DIV>Default 1,1,19,25,145
-ptx_opcode_latency_fp          4,13,4,5,39 # Opcode latencies for single precision floating points <ADD,MAX,MUL,MAD,DIV>Default 1,1,1,1,30
-ptx_opcode_latency_dp         8,19,8,8,330 # Opcode latencies for double precision floating points <ADD,MAX,MUL,MAD,DIV>Default 8,8,8,8,335
-ptx_opcode_initiation_int            1,2,2,1,8 # Opcode initiation intervals for integers <ADD,MAX,MUL,MAD,DIV>Default 1,1,4,4,32
-ptx_opcode_initiation_fp            1,2,1,1,4 # Opcode initiation intervals for single precision floating points <ADD,MAX,MUL,MAD,DIV>Default 1,1,1,1,5
-ptx_opcode_initiation_dp         8,16,8,8,130 # Opcode initiation intervals for double precision floating points <ADD,MAX,MUL,MAD,DIV>Default 8,8,8,8,130
DRAM Timing Options:
nbk                                    16 # number of banks
CCD                                     2 # column to column delay
RRD                                     6 # minimal delay between activation of rows in different banks
RCD                                    12 # row to column delay
RAS                                    28 # time needed to activate row
RP                                     12 # time needed to precharge (deactivate) row
RC                                     40 # row cycle time
CDLR                                    5 # switching from write to read (changes tWTR)
WR                                     12 # last data-in to row precharge
CL                                     12 # CAS latency
WL                                      4 # Write latency
nbkgrp                                  4 # number of bank groups
CCDL                                    3 # column to column delay between accesses to different bank groups
RTPL                                    2 # read to precharge delay between accesses to different bank groups
Total number of memory sub partition = 12
addr_dec_mask[CHIP]  = 0000000000000000 	high:64 low:0
addr_dec_mask[BK]    = 000000000000e100 	high:16 low:8
addr_dec_mask[ROW]   = 000000000fff0000 	high:28 low:16
addr_dec_mask[COL]   = 0000000000001eff 	high:13 low:0
addr_dec_mask[BURST] = 000000000000003f 	high:6 low:0
sub_partition_id_mask = 0000000000000100
GPGPU-Sim uArch: clock freqs: 575000000.000000:575000000.000000:575000000.000000:750000000.000000
GPGPU-Sim uArch: clock periods: 0.00000000173913043478:0.00000000173913043478:0.00000000173913043478:0.00000000133333333333
*** Initializing Memory Statistics ***
GPGPU-Sim uArch: interconnect node map (shaderID+MemID to icntID)
GPGPU-Sim uArch: Memory nodes ID start from index: 14
GPGPU-Sim uArch:    0   1   2   3   4
GPGPU-Sim uArch:    5   6   7   8   9
GPGPU-Sim uArch:   10  11  12  13  14
GPGPU-Sim uArch:   15  16  17  18  19
GPGPU-Sim uArch:   20  21  22  23  24
GPGPU-Sim uArch:   25
GPGPU-Sim uArch: interconnect node reverse map (icntID to shaderID+MemID)
GPGPU-Sim uArch: Memory nodes start from ID: 14
GPGPU-Sim uArch:    0   1   2   3   4
GPGPU-Sim uArch:    5   6   7   8   9
GPGPU-Sim uArch:   10  11  12  13  14
GPGPU-Sim uArch:   15  16  17  18  19
GPGPU-Sim uArch:   20  21  22  23  24
GPGPU-Sim uArch:   25
fea80b11d51f4d438cb681b10108c167  /home/vishwesh/Desktop/Register_Sharing_Pbm/rodinia_2.4/cuda/lud/cuda/lud_cuda
GPGPU-Sim uArch: performance model initialization complete.
GPGPU-Sim PTX: __cudaRegisterFatBinary, fat_cubin_handle = 1, filename=lud.cu
self exe links to: /home/vishwesh/Desktop/Register_Sharing_Pbm/rodinia_2.4/cuda/lud/cuda/lud_cuda
Running md5sum using "md5sum /home/vishwesh/Desktop/Register_Sharing_Pbm/rodinia_2.4/cuda/lud/cuda/lud_cuda "
Running cuobjdump using "$CUDA_INSTALL_PATH/bin/cuobjdump -ptx -elf -sass /home/vishwesh/Desktop/Register_Sharing_Pbm/rodinia_2.4/cuda/lud/cuda/lud_cuda > _cuobjdump_complete_output_4yCMhA"
Parsing file _cuobjdump_complete_output_4yCMhA
######### cuobjdump parser ########
## Adding new section ELF
Adding arch: sm_13
Adding identifier: lud.cu
## Adding new section PTX
Adding ptx filename: _cuobjdump_1.ptx
Adding arch: sm_13
Adding identifier: lud.cu
## Adding new section ELF
Adding arch: sm_13
Adding identifier: lud_kernel.cu
## Adding new section PTX
Adding ptx filename: _cuobjdump_2.ptx
Adding arch: sm_13
Adding identifier: lud_kernel.cu
Done parsing!!!
GPGPU-Sim: WARNING: Capability >= 20 are not supported in PTXPlus
	Setting forced_max_capability to 19
GPGPU-Sim PTX: __cudaRegisterFatBinary, fat_cubin_handle = 2, filename=lud_kernel.cu
GPGPU-Sim PTX: __cudaRegisterFunction _Z12lud_internalPfii : hostFun 0x0x401ea0, fat_cubin_handle = 2
GPGPU-Sim PTX: converting EMBEDDED .ptx file to ptxplus 
RUNNING cuobjdump_to_ptxplus ...
Parsing .elf file _cuobjdump_2.elf
()





Finished parsing .elf file _cuobjdump_2.elf
Parsing .ptx file _cuobjdump_2.ptx
Finished parsing .ptx file _cuobjdump_2.ptx
Parsing .sass file _cuobjdump_2.sass
Finished parsing .sass file _cuobjdump_2.sass
DONE. 
GPGPU-Sim PTX: calling cuobjdump_to_ptxplus
commandline: $GPGPUSIM_ROOT/build/$GPGPUSIM_CONFIG/cuobjdump_to_ptxplus/cuobjdump_to_ptxplus _cuobjdump_2.ptx _cuobjdump_2.sass _cuobjdump_2.elf _ptxplus_yI2jIE
GPGPU-Sim PTX: DONE converting EMBEDDED .ptx file to ptxplus 
GPGPU-Sim PTX: allocating constant region for "constant1_Z12lud_diagonalPfii" from 0x100 to 0x104 (global memory space) 1
GPGPU-Sim PTX: allocating constant region for "constant1_Z12lud_internalPfii" from 0x108 to 0x110 (global memory space) 2
GPGPU-Sim PTX: allocating constant region for "constant1_Z13lud_perimeterPfii" from 0x110 to 0x118 (global memory space) 3
GPGPU-Sim PTX: PTX uses two scalar type intruction with literal operand.
GPGPU-Sim PTX: instruction assembly for function '_Z13lud_perimeterPfii'...   done.
GPGPU-Sim PTX: finding reconvergence points for '_Z13lud_perimeterPfii'...
GPGPU-Sim PTX: Finding dominators for '_Z13lud_perimeterPfii'...
GPGPU-Sim PTX: Finding immediate dominators for '_Z13lud_perimeterPfii'...
GPGPU-Sim PTX: Finding postdominators for '_Z13lud_perimeterPfii'...
GPGPU-Sim PTX: Finding immediate postdominators for '_Z13lud_perimeterPfii'...
GPGPU-Sim PTX: pre-decoding instructions for '_Z13lud_perimeterPfii'...
GPGPU-Sim PTX: reconvergence points for _Z13lud_perimeterPfii...
GPGPU-Sim PTX:  1 (potential) branch divergence @  PC=0x028 (_2.ptx:44) @$p1.eq bra l0x000004d0;
GPGPU-Sim PTX:    immediate post dominator      @  PC=0x9a8 (_2.ptx:404) l0x000009a8: nop;
GPGPU-Sim PTX:  2 (potential) branch divergence @  PC=0x4c8 (_2.ptx:221) bra l0x000009a8;
GPGPU-Sim PTX:    immediate post dominator      @  PC=0x9a8 (_2.ptx:404) l0x000009a8: nop;
GPGPU-Sim PTX:  3 (potential) branch divergence @  PC=0x9c0 (_2.ptx:407) @$p0.eq bra l0x00000a88;
GPGPU-Sim PTX:    immediate post dominator      @  PC=0xc30 (_2.ptx:485) l0x00000c30: nop;
GPGPU-Sim PTX:  4 (potential) branch divergence @  PC=0x9d8 (_2.ptx:410) @$p1.ne bra l0x00000a68;
GPGPU-Sim PTX:    immediate post dominator      @  PC=0xa68 (_2.ptx:428) l0x00000a68: add.u32 $r3, $r3, 0x00000001;
GPGPU-Sim PTX:  5 (potential) branch divergence @  PC=0xa60 (_2.ptx:427) @$p1.ne bra l0x00000a38;
GPGPU-Sim PTX:    immediate post dominator      @  PC=0xa68 (_2.ptx:428) l0x00000a68: add.u32 $r3, $r3, 0x00000001;
GPGPU-Sim PTX:  6 (potential) branch divergence @  PC=0xa78 (_2.ptx:430) @$p1.ne bra l0x000009d0;
GPGPU-Sim PTX:    immediate post dominator      @  PC=0xa80 (_2.ptx:431) bra l0x00000c30;
GPGPU-Sim PTX:  7 (potential) branch divergence @  PC=0xa80 (_2.ptx:431) bra l0x00000c30;
GPGPU-Sim PTX:    immediate post dominator      @  PC=0xc30 (_2.ptx:485) l0x00000c30: nop;
GPGPU-Sim PTX:  8 (potential) branch divergence @  PC=0xac0 (_2.ptx:439) @$p1.ne bra l0x00000b98;
GPGPU-Sim PTX:    immediate post dominator      @  PC=0xbc8 (_2.ptx:472) l0x00000bc8: shl.b32 $ofs1, $r8, 0x0;
GPGPU-Sim PTX:  9 (potential) branch divergence @  PC=0xb88 (_2.ptx:464) @$p1.ne bra l0x00000b20;
GPGPU-Sim PTX:    immediate post dominator      @  PC=0xb90 (_2.ptx:465) bra l0x00000bc8;
GPGPU-Sim PTX: 10 (potential) branch divergence @  PC=0xb90 (_2.ptx:465) bra l0x00000bc8;
GPGPU-Sim PTX:    immediate post dominator      @  PC=0xbc8 (_2.ptx:472) l0x00000bc8: shl.b32 $ofs1, $r8, 0x0;
GPGPU-Sim PTX: 11 (potential) branch divergence @  PC=0xc28 (_2.ptx:484) @$p1.ne bra l0x00000ab8;
GPGPU-Sim PTX:    immediate post dominator      @  PC=0xc30 (_2.ptx:485) l0x00000c30: nop;
GPGPU-Sim PTX: 12 (potential) branch divergence @  PC=0xc40 (_2.ptx:487) @$p0.eq bra l0x00000fe0;
GPGPU-Sim PTX:    immediate post dominator      @ 
GPGPU-Sim PTX: ... end of reconvergence points for _Z13lud_perimeterPfii
GPGPU-Sim PTX: ... done pre-decoding instructions for '_Z13lud_perimeterPfii'.
GPGPU-Sim PTX: instruction assembly for function '_Z12lud_internalPfii'...   done.
GPGPU-Sim PTX: finding reconvergence points for '_Z12lud_internalPfii'...
GPGPU-Sim PTX: Finding dominators for '_Z12lud_internalPfii'...
GPGPU-Sim PTX: Finding immediate dominators for '_Z12lud_internalPfii'...
GPGPU-Sim PTX: Finding postdominators for '_Z12lud_internalPfii'...
GPGPU-Sim PTX: Finding immediate postdominators for '_Z12lud_internalPfii'...
GPGPU-Sim PTX: pre-decoding instructions for '_Z12lud_internalPfii'...
GPGPU-Sim PTX: reconvergence points for _Z12lud_internalPfii...
GPGPU-Sim PTX: ... end of reconvergence points for _Z12lud_internalPfii
GPGPU-Sim PTX: ... done pre-decoding instructions for '_Z12lud_internalPfii'.
GPGPU-Sim PTX: instruction assembly for function '_Z12lud_diagonalPfii'...   done.
GPGPU-Sim PTX: finding reconvergence points for '_Z12lud_diagonalPfii'...
GPGPU-Sim PTX: Finding dominators for '_Z12lud_diagonalPfii'...
GPGPU-Sim PTX: Finding immediate dominators for '_Z12lud_diagonalPfii'...
GPGPU-Sim PTX: Finding postdominators for '_Z12lud_diagonalPfii'...
GPGPU-Sim PTX: Finding immediate postdominators for '_Z12lud_diagonalPfii'...
GPGPU-Sim PTX: pre-decoding instructions for '_Z12lud_diagonalPfii'...
GPGPU-Sim PTX: reconvergence points for _Z12lud_diagonalPfii...
GPGPU-Sim PTX:  1 (potential) branch divergence @  PC=0x1920 (_2.ptx:981) @$p1.eq bra l0x00000440;
GPGPU-Sim PTX:    immediate post dominator      @  PC=0x1a38 (_2.ptx:1018) l0x00000440: nop;
GPGPU-Sim PTX:  2 (potential) branch divergence @  PC=0x1930 (_2.ptx:983) @$p1.ne bra l0x000003e8;
GPGPU-Sim PTX:    immediate post dominator      @  PC=0x1a10 (_2.ptx:1012) l0x00000418: mul24.lo.u32 $r2, $r2, 0x00000044;
GPGPU-Sim PTX:  3 (potential) branch divergence @  PC=0x19d0 (_2.ptx:1003) @$p1.ne bra l0x000003a8;
GPGPU-Sim PTX:    immediate post dominator      @  PC=0x19d8 (_2.ptx:1004) bra l0x00000418;
GPGPU-Sim PTX:  4 (potential) branch divergence @  PC=0x19d8 (_2.ptx:1004) bra l0x00000418;
GPGPU-Sim PTX:    immediate post dominator      @  PC=0x1a10 (_2.ptx:1012) l0x00000418: mul24.lo.u32 $r2, $r2, 0x00000044;
GPGPU-Sim PTX:  5 (potential) branch divergence @  PC=0x1a50 (_2.ptx:1021) @$p0.eq bra l0x00000500;
GPGPU-Sim PTX:    immediate post dominator      @  PC=0x1af8 (_2.ptx:1042) l0x00000500: nop;
GPGPU-Sim PTX:  6 (potential) branch divergence @  PC=0x1a68 (_2.ptx:1024) @$p0.ne bra l0x00000500;
GPGPU-Sim PTX:    immediate post dominator      @  PC=0x1af8 (_2.ptx:1042) l0x00000500: nop;
GPGPU-Sim PTX:  7 (potential) branch divergence @  PC=0x1af0 (_2.ptx:1041) @$p0.ne bra l0x000004c0;
GPGPU-Sim PTX:    immediate post dominator      @  PC=0x1af8 (_2.ptx:1042) l0x00000500: nop;
GPGPU-Sim PTX:  8 (potential) branch divergence @  PC=0x1b18 (_2.ptx:1046) @$p0.ne bra l0x00000310;
GPGPU-Sim PTX:    immediate post dominator      @  PC=0x1b20 (_2.ptx:1047) add.u32 $r2, s[0x001c], 0x00000001;
GPGPU-Sim PTX: ... end of reconvergence points for _Z12lud_diagonalPfii
GPGPU-Sim PTX: ... done pre-decoding instructions for '_Z12lud_diagonalPfii'.
GPGPU-Sim PTX: finished parsing EMBEDDED .ptx file _2.ptx
Adding _cuobjdump_2.ptx with cubin handle 2
GPGPU-Sim PTX: extracting embedded .ptx to temporary file "_ptx_Ld0zdJ"
Running: cat _ptx_Ld0zdJ | sed 's/.version 1.5/.version 1.4/' | sed 's/, texmode_independent//' | sed 's/\(\.extern \.const\[1\] .b8 \w\+\)\[\]/\1\[1\]/' | sed 's/const\[.\]/const\[0\]/g' > _ptx2_O91QIN
GPGPU-Sim PTX: generating ptxinfo using "$CUDA_INSTALL_PATH/bin/ptxas --gpu-name=sm_20 -v _ptx2_O91QIN --output-file  /dev/null 2> _ptx_Ld0zdJinfo"
GPGPU-Sim PTX: Kernel '_Z13lud_perimeterPfii' : regs=32, lmem=0, smem=3072, cmem=56
GPGPU-Sim PTX: Kernel '_Z12lud_internalPfii' : regs=15, lmem=0, smem=2048, cmem=48
GPGPU-Sim PTX: Kernel '_Z12lud_diagonalPfii' : regs=22, lmem=0, smem=1024, cmem=48
GPGPU-Sim PTX: removing ptxinfo using "rm -f _ptx_Ld0zdJ _ptx2_O91QIN _ptx_Ld0zdJinfo"
GPGPU-Sim PTX: loading globals with explicit initializers... 
GPGPU-Sim PTX: finished loading globals (0 bytes total).
GPGPU-Sim PTX: loading constants with explicit initializers...  done.
GPGPU-Sim PTX: __cudaRegisterFunction _Z13lud_perimeterPfii : hostFun 0x0x401f20, fat_cubin_handle = 2
GPGPU-Sim PTX: __cudaRegisterFunction _Z12lud_diagonalPfii : hostFun 0x0x401fa0, fat_cubin_handle = 2
Generate input matrix internally, size =256
Creating matrix internally size=256
Before LUD

GPGPU-Sim PTX: cudaLaunch for 0x0x401fa0 (mode=performance simulation) on stream 0
GPGPU-Sim PTX: pushing kernel '_Z12lud_diagonalPfii' to stream 0, gridDim= (1,1,1) blockDim = (16,1,1) 
kernel '_Z12lud_diagonalPfii' transfer to GPU hardware scheduler
GPGPU-Sim uArch: Shader 1 bind to kernel 1 '_Z12lud_diagonalPfii'
GPGPU-Sim uArch: CTA/core = 8, limited by: cta_limit
GPGPU-Sim uArch: core:  1, cta: 0 initialized @(1,0)
GPGPU-Sim PTX: WARNING (_2.ptx:977) ** reading undefined register '$r124' (cuid:0). Setting to 0X00000000. This is okay if you are simulating the native ISA
GPGPU-Sim uArch: Shader 1 finished CTA #0 (15366,0), 0 CTAs running
GPGPU-Sim uArch: Shader 1 empty (release kernel 1 '_Z12lud_diagonalPfii').
GPGPU-Sim uArch: GPU detected kernel '_Z12lud_diagonalPfii' finished on shader 1.
kernel_name = _Z12lud_diagonalPfii 
kernel_launch_uid = 1 
gpu_sim_cycle = 15367
gpu_sim_insn = 19237
gpu_ipc =       1.2518
gpu_tot_sim_cycle = 15367
gpu_tot_sim_insn = 19237
gpu_tot_ipc =       1.2518
gpu_tot_issued_cta = 0
gpu_stall_dramfull = 0
gpu_stall_icnt2sh    = 0
gpu_total_sim_rate=19237

========= Core cache stats =========
L1I_cache:
	L1I_total_cache_accesses = 1501
	L1I_total_cache_misses = 17
	L1I_total_cache_miss_rate = 0.0113
	L1I_total_cache_pending_hits = 0
	L1I_total_cache_reservation_fails = 0
L1D_cache:
	L1D_cache_core[0]: Access = 0, Miss = 0, Miss_rate = -nan, Pending_hits = 0, Reservation_fails = 0
	L1D_cache_core[1]: Access = 31, Miss = 16, Miss_rate = 0.516, Pending_hits = 0, Reservation_fails = 0
	L1D_cache_core[2]: Access = 0, Miss = 0, Miss_rate = -nan, Pending_hits = 0, Reservation_fails = 0
	L1D_cache_core[3]: Access = 0, Miss = 0, Miss_rate = -nan, Pending_hits = 0, Reservation_fails = 0
	L1D_cache_core[4]: Access = 0, Miss = 0, Miss_rate = -nan, Pending_hits = 0, Reservation_fails = 0
	L1D_cache_core[5]: Access = 0, Miss = 0, Miss_rate = -nan, Pending_hits = 0, Reservation_fails = 0
	L1D_cache_core[6]: Access = 0, Miss = 0, Miss_rate = -nan, Pending_hits = 0, Reservation_fails = 0
	L1D_cache_core[7]: Access = 0, Miss = 0, Miss_rate = -nan, Pending_hits = 0, Reservation_fails = 0
	L1D_cache_core[8]: Access = 0, Miss = 0, Miss_rate = -nan, Pending_hits = 0, Reservation_fails = 0
	L1D_cache_core[9]: Access = 0, Miss = 0, Miss_rate = -nan, Pending_hits = 0, Reservation_fails = 0
	L1D_cache_core[10]: Access = 0, Miss = 0, Miss_rate = -nan, Pending_hits = 0, Reservation_fails = 0
	L1D_cache_core[11]: Access = 0, Miss = 0, Miss_rate = -nan, Pending_hits = 0, Reservation_fails = 0
	L1D_cache_core[12]: Access = 0, Miss = 0, Miss_rate = -nan, Pending_hits = 0, Reservation_fails = 0
	L1D_cache_core[13]: Access = 0, Miss = 0, Miss_rate = -nan, Pending_hits = 0, Reservation_fails = 0
	L1D_total_cache_accesses = 31
	L1D_total_cache_misses = 16
	L1D_total_cache_miss_rate = 0.5161
	L1D_total_cache_pending_hits = 0
	L1D_total_cache_reservation_fails = 0
	L1D_cache_data_port_util = 0.001
	L1D_cache_fill_port_util = 0.001
L1C_cache:
	L1C_total_cache_accesses = 0
	L1C_total_cache_misses = 0
	L1C_total_cache_pending_hits = 0
	L1C_total_cache_reservation_fails = 0
L1T_cache:
	L1T_total_cache_accesses = 0
	L1T_total_cache_misses = 0
	L1T_total_cache_pending_hits = 0
	L1T_total_cache_reservation_fails = 0

Total_core_cache_stats:
	Total_core_cache_stats_breakdown[GLOBAL_ACC_R][MISS] = 16
	Total_core_cache_stats_breakdown[GLOBAL_ACC_W][HIT] = 15
	Total_core_cache_stats_breakdown[INST_ACC_R][HIT] = 1484
	Total_core_cache_stats_breakdown[INST_ACC_R][MISS] = 17
Shader 0 warp_id issue ditsribution:
warp_id:

distro:

gpgpu_n_tot_thrd_icount = 83552
gpgpu_n_tot_w_icount = 2611
gpgpu_n_stall_shd_mem = 504
gpgpu_n_mem_read_local = 0
gpgpu_n_mem_write_local = 0
gpgpu_n_mem_read_global = 16
gpgpu_n_mem_write_global = 15
gpgpu_n_mem_texture = 0
gpgpu_n_mem_const = 0
gpgpu_n_load_insn  = 256
gpgpu_n_store_insn = 240
gpgpu_n_shmem_insn = 3504
gpgpu_n_tex_insn = 0
gpgpu_n_const_mem_insn = 0
gpgpu_n_param_mem_insn = 0
gpgpu_n_shmem_bkconflict = 0
gpgpu_n_cache_bkconflict = 0
gpgpu_n_intrawarp_mshr_merge = 0
gpgpu_n_cmem_portconflict = 0
gpgpu_stall_shd_mem[c_mem][bk_conf] = 0
gpgpu_stall_shd_mem[c_mem][mshr_rc] = 0
gpgpu_stall_shd_mem[c_mem][icnt_rc] = 0
gpgpu_stall_shd_mem[c_mem][data_port_stall] = 0
gpgpu_stall_shd_mem[t_mem][mshr_rc] = 0
gpgpu_stall_shd_mem[t_mem][icnt_rc] = 0
gpgpu_stall_shd_mem[t_mem][data_port_stall] = 0
gpgpu_stall_shd_mem[s_mem][bk_conf] = 504
gpgpu_stall_shd_mem[gl_mem][bk_conf] = 0
gpgpu_stall_shd_mem[gl_mem][coal_stall] = 0
gpgpu_stall_shd_mem[gl_mem][data_port_stall] = 0
gpgpu_stall_shd_mem[g_mem_ld][mshr_rc] = 0
gpgpu_stall_shd_mem[g_mem_ld][icnt_rc] = 0
gpgpu_stall_shd_mem[g_mem_ld][wb_icnt_rc] = 0
gpgpu_stall_shd_mem[g_mem_ld][wb_rsrv_fail] = 0
gpgpu_stall_shd_mem[g_mem_st][mshr_rc] = 0
gpgpu_stall_shd_mem[g_mem_st][icnt_rc] = 0
gpgpu_stall_shd_mem[g_mem_st][wb_icnt_rc] = 0
gpgpu_stall_shd_mem[g_mem_st][wb_rsrv_fail] = 0
gpgpu_stall_shd_mem[l_mem_ld][mshr_rc] = 0
gpgpu_stall_shd_mem[l_mem_ld][icnt_rc] = 0
gpgpu_stall_shd_mem[l_mem_ld][wb_icnt_rc] = 0
gpgpu_stall_shd_mem[l_mem_ld][wb_rsrv_fail] = 0
gpgpu_stall_shd_mem[l_mem_st][mshr_rc] = 0
gpgpu_stall_shd_mem[l_mem_st][icnt_rc] = 0
gpgpu_stall_shd_mem[l_mem_ld][wb_icnt_rc] = 0
gpgpu_stall_shd_mem[l_mem_ld][wb_rsrv_fail] = 0
gpu_reg_bank_conflict_stalls = 0
Warp Occupancy Distribution:
Stall:0	W0_Idle:21736	W0_Scoreboard:6413	W1:252	W2:237	W3:222	W4:207	W5:192	W6:177	W7:162	W8:147	W9:132	W10:117	W11:102	W12:87	W13:72	W14:57	W15:35	W16:413	W17:0	W18:0	W19:0	W20:0	W21:0	W22:0	W23:0	W24:0	W25:0	W26:0	W27:0	W28:0	W29:0	W30:0	W31:0	W32:0
traffic_breakdown_coretomem[GLOBAL_ACC_R] = 128 {8:16,}
traffic_breakdown_coretomem[GLOBAL_ACC_W] = 1080 {72:15,}
traffic_breakdown_coretomem[INST_ACC_R] = 136 {8:17,}
traffic_breakdown_memtocore[GLOBAL_ACC_R] = 2176 {136:16,}
traffic_breakdown_memtocore[GLOBAL_ACC_W] = 120 {8:15,}
traffic_breakdown_memtocore[INST_ACC_R] = 2312 {136:17,}
Memory Partition 0: 
Cache L2_bank_000:
MSHR contents

Cache L2_bank_001:
MSHR contents

In Dram Latency Queue (total = 0): 
DRAM[0]: 16 bks, busW=4 BL=8 CL=12, tRRD=2 tCCD=6, tRCD=12 tRAS=28 tRP=12 tRC=40
n_cmd=20043 n_nop=20027 n_act=2 n_pre=0 n_req=7 n_rd=14 n_write=0 bw_util=0.001397
n_activity=155 dram_eff=0.1806
bk0: 4a 20023i bk1: 0a 20043i bk2: 0a 20043i bk3: 0a 20043i bk4: 10a 20010i bk5: 0a 20041i bk6: 0a 20041i bk7: 0a 20041i bk8: 0a 20042i bk9: 0a 20043i bk10: 0a 20044i bk11: 0a 20044i bk12: 0a 20044i bk13: 0a 20044i bk14: 0a 20044i bk15: 0a 20044i 
dram_util_bins: 0 0 0 0 0 0 0 0 0 0
dram_eff_bins: 0 0 0 0 0 0 0 0 0 0
mrqq: max=0 avg=0
Memory Partition 1: 
Cache L2_bank_002:
MSHR contents

Cache L2_bank_003:
MSHR contents

In Dram Latency Queue (total = 0): 
DRAM[1]: 16 bks, busW=4 BL=8 CL=12, tRRD=2 tCCD=6, tRCD=12 tRAS=28 tRP=12 tRC=40
n_cmd=20043 n_nop=20038 n_act=1 n_pre=0 n_req=2 n_rd=4 n_write=0 bw_util=0.0003991
n_activity=55 dram_eff=0.1455
bk0: 4a 20023i bk1: 0a 20043i bk2: 0a 20043i bk3: 0a 20043i bk4: 0a 20043i bk5: 0a 20043i bk6: 0a 20043i bk7: 0a 20043i bk8: 0a 20043i bk9: 0a 20043i bk10: 0a 20043i bk11: 0a 20043i bk12: 0a 20043i bk13: 0a 20043i bk14: 0a 20043i bk15: 0a 20043i 
dram_util_bins: 0 0 0 0 0 0 0 0 0 0
dram_eff_bins: 0 0 0 0 0 0 0 0 0 0
mrqq: max=0 avg=0
Memory Partition 2: 
Cache L2_bank_004:
MSHR contents

Cache L2_bank_005:
MSHR contents

In Dram Latency Queue (total = 0): 
DRAM[2]: 16 bks, busW=4 BL=8 CL=12, tRRD=2 tCCD=6, tRCD=12 tRAS=28 tRP=12 tRC=40
n_cmd=20043 n_nop=20025 n_act=2 n_pre=0 n_req=8 n_rd=16 n_write=0 bw_util=0.001597
n_activity=170 dram_eff=0.1882
bk0: 4a 20023i bk1: 0a 20043i bk2: 0a 20043i bk3: 0a 20043i bk4: 0a 20043i bk5: 12a 20006i bk6: 0a 20042i bk7: 0a 20042i bk8: 0a 20042i bk9: 0a 20042i bk10: 0a 20042i bk11: 0a 20043i bk12: 0a 20044i bk13: 0a 20044i bk14: 0a 20044i bk15: 0a 20044i 
dram_util_bins: 0 0 0 0 0 0 0 0 0 0
dram_eff_bins: 0 0 0 0 0 0 0 0 0 0
mrqq: max=0 avg=0
Memory Partition 3: 
Cache L2_bank_006:
MSHR contents

Cache L2_bank_007:
MSHR contents

In Dram Latency Queue (total = 0): 
DRAM[3]: 16 bks, busW=4 BL=8 CL=12, tRRD=2 tCCD=6, tRCD=12 tRAS=28 tRP=12 tRC=40
n_cmd=20043 n_nop=20035 n_act=2 n_pre=0 n_req=3 n_rd=6 n_write=0 bw_util=0.0005987
n_activity=95 dram_eff=0.1263
bk0: 4a 20023i bk1: 2a 20026i bk2: 0a 20041i bk3: 0a 20043i bk4: 0a 20043i bk5: 0a 20043i bk6: 0a 20043i bk7: 0a 20043i bk8: 0a 20043i bk9: 0a 20043i bk10: 0a 20043i bk11: 0a 20043i bk12: 0a 20043i bk13: 0a 20043i bk14: 0a 20043i bk15: 0a 20044i 
dram_util_bins: 0 0 0 0 0 0 0 0 0 0
dram_eff_bins: 0 0 0 0 0 0 0 0 0 0
mrqq: max=0 avg=0
Memory Partition 4: 
Cache L2_bank_008:
MSHR contents

Cache L2_bank_009:
MSHR contents

In Dram Latency Queue (total = 0): 
DRAM[4]: 16 bks, busW=4 BL=8 CL=12, tRRD=2 tCCD=6, tRCD=12 tRAS=28 tRP=12 tRC=40
n_cmd=20043 n_nop=20022 n_act=3 n_pre=0 n_req=9 n_rd=18 n_write=0 bw_util=0.001796
n_activity=210 dram_eff=0.1714
bk0: 4a 20023i bk1: 4a 20022i bk2: 0a 20041i bk3: 0a 20042i bk4: 10a 20010i bk5: 0a 20041i bk6: 0a 20042i bk7: 0a 20042i bk8: 0a 20043i bk9: 0a 20043i bk10: 0a 20044i bk11: 0a 20044i bk12: 0a 20044i bk13: 0a 20044i bk14: 0a 20044i bk15: 0a 20044i 
dram_util_bins: 0 0 0 0 0 0 0 0 0 0
dram_eff_bins: 0 0 0 0 0 0 0 0 0 0
mrqq: max=0 avg=0
Memory Partition 5: 
Cache L2_bank_010:
MSHR contents

Cache L2_bank_011:
MSHR contents

In Dram Latency Queue (total = 0): 
DRAM[5]: 16 bks, busW=4 BL=8 CL=12, tRRD=2 tCCD=6, tRCD=12 tRAS=28 tRP=12 tRC=40
n_cmd=20043 n_nop=20033 n_act=2 n_pre=0 n_req=4 n_rd=8 n_write=0 bw_util=0.0007983
n_activity=110 dram_eff=0.1455
bk0: 4a 20023i bk1: 4a 20022i bk2: 0a 20041i bk3: 0a 20042i bk4: 0a 20043i bk5: 0a 20043i bk6: 0a 20043i bk7: 0a 20043i bk8: 0a 20043i bk9: 0a 20043i bk10: 0a 20043i bk11: 0a 20043i bk12: 0a 20043i bk13: 0a 20043i bk14: 0a 20044i bk15: 0a 20044i 
dram_util_bins: 0 0 0 0 0 0 0 0 0 0
dram_eff_bins: 0 0 0 0 0 0 0 0 0 0
mrqq: max=0 avg=0

========= L2 cache stats =========
L2_cache_bank[0]: Access = 12, Miss = 7, Miss_rate = 0.583, Pending_hits = 0, Reservation_fails = 0
L2_cache_bank[1]: Access = 0, Miss = 0, Miss_rate = -nan, Pending_hits = 0, Reservation_fails = 0
L2_cache_bank[2]: Access = 2, Miss = 2, Miss_rate = 1.000, Pending_hits = 0, Reservation_fails = 0
L2_cache_bank[3]: Access = 0, Miss = 0, Miss_rate = -nan, Pending_hits = 0, Reservation_fails = 0
L2_cache_bank[4]: Access = 2, Miss = 2, Miss_rate = 1.000, Pending_hits = 0, Reservation_fails = 0
L2_cache_bank[5]: Access = 11, Miss = 6, Miss_rate = 0.545, Pending_hits = 0, Reservation_fails = 0
L2_cache_bank[6]: Access = 2, Miss = 2, Miss_rate = 1.000, Pending_hits = 0, Reservation_fails = 0
L2_cache_bank[7]: Access = 1, Miss = 1, Miss_rate = 1.000, Pending_hits = 0, Reservation_fails = 0
L2_cache_bank[8]: Access = 12, Miss = 7, Miss_rate = 0.583, Pending_hits = 0, Reservation_fails = 0
L2_cache_bank[9]: Access = 2, Miss = 2, Miss_rate = 1.000, Pending_hits = 0, Reservation_fails = 0
L2_cache_bank[10]: Access = 2, Miss = 2, Miss_rate = 1.000, Pending_hits = 0, Reservation_fails = 0
L2_cache_bank[11]: Access = 2, Miss = 2, Miss_rate = 1.000, Pending_hits = 0, Reservation_fails = 0
L2_total_cache_accesses = 48
L2_total_cache_misses = 33
L2_total_cache_miss_rate = 0.6875
L2_total_cache_pending_hits = 0
L2_total_cache_reservation_fails = 0
L2_total_cache_breakdown:
	L2_cache_stats_breakdown[GLOBAL_ACC_R][MISS] = 16
	L2_cache_stats_breakdown[GLOBAL_ACC_W][HIT] = 15
	L2_cache_stats_breakdown[INST_ACC_R][MISS] = 17
L2_cache_data_port_util = 0.000
L2_cache_fill_port_util = 0.001

icnt_total_pkts_mem_to_simt=180
icnt_total_pkts_simt_to_mem=78
LD_mem_lat_dist  0 0 0 0 0 0 0 0 0 0 0 0 0 0 0 0 0 0 0 0 0 0 0 0 0 0 0
ST_mem_lat_dist  0 0 0 0 0 0 0 0 0 0 0 0 0 0 0 0 0 0 0 0 0 0 0 0 0 0 0
----------------------------Interconnect-DETAILS--------------------------------
Class 0:
Packet latency average = 7.78125
	minimum = 6
	maximum = 14
Network latency average = 7.77083
	minimum = 6
	maximum = 14
Slowest packet = 13
Flit latency average = 6.12403
	minimum = 6
	maximum = 10
Slowest flit = 37
Fragmentation average = 0
	minimum = 0
	maximum = 0
Injected packet rate average = 0.000240275
	minimum = 0 (at node 0)
	maximum = 0.00312358 (at node 1)
Accepted packet rate average = 0.000240275
	minimum = 0 (at node 0)
	maximum = 0.00312358 (at node 1)
Injected flit rate average = 0.000645739
	minimum = 0 (at node 0)
	maximum = 0.00507581 (at node 1)
Accepted flit rate average= 0.000645739
	minimum = 0 (at node 0)
	maximum = 0.0117134 (at node 1)
Injected packet length average = 2.6875
Accepted packet length average = 2.6875
Total in-flight flits = 0 (0 measured)
====== Overall Traffic Statistics ======
====== Traffic class 0 ======
Packet latency average = 7.78125 (1 samples)
	minimum = 6 (1 samples)
	maximum = 14 (1 samples)
Network latency average = 7.77083 (1 samples)
	minimum = 6 (1 samples)
	maximum = 14 (1 samples)
Flit latency average = 6.12403 (1 samples)
	minimum = 6 (1 samples)
	maximum = 10 (1 samples)
Fragmentation average = 0 (1 samples)
	minimum = 0 (1 samples)
	maximum = 0 (1 samples)
Injected packet rate average = 0.000240275 (1 samples)
	minimum = 0 (1 samples)
	maximum = 0.00312358 (1 samples)
Accepted packet rate average = 0.000240275 (1 samples)
	minimum = 0 (1 samples)
	maximum = 0.00312358 (1 samples)
Injected flit rate average = 0.000645739 (1 samples)
	minimum = 0 (1 samples)
	maximum = 0.00507581 (1 samples)
Accepted flit rate average = 0.000645739 (1 samples)
	minimum = 0 (1 samples)
	maximum = 0.0117134 (1 samples)
Injected packet size average = 2.6875 (1 samples)
Accepted packet size average = 2.6875 (1 samples)
Hops average = 1 (1 samples)
----------------------------END-of-Interconnect-DETAILS-------------------------


gpgpu_simulation_time = 0 days, 0 hrs, 0 min, 1 sec (1 sec)
gpgpu_simulation_rate = 19237 (inst/sec)
gpgpu_simulation_rate = 15367 (cycle/sec)

GPGPU-Sim PTX: cudaLaunch for 0x0x401f20 (mode=performance simulation) on stream 0
GPGPU-Sim PTX: pushing kernel '_Z13lud_perimeterPfii' to stream 0, gridDim= (15,1,1) blockDim = (32,1,1) 
kernel '_Z13lud_perimeterPfii' transfer to GPU hardware scheduler
GPGPU-Sim uArch: Shader 2 bind to kernel 2 '_Z13lud_perimeterPfii'
GPGPU-Sim uArch: CTA/core = 8, limited by: cta_limit
GPGPU-Sim uArch: core:  2, cta: 0 initialized @(1,15367)
GPGPU-Sim uArch: Shader 3 bind to kernel 2 '_Z13lud_perimeterPfii'
GPGPU-Sim uArch: core:  3, cta: 0 initialized @(1,15367)
GPGPU-Sim uArch: Shader 4 bind to kernel 2 '_Z13lud_perimeterPfii'
GPGPU-Sim uArch: core:  4, cta: 0 initialized @(1,15367)
GPGPU-Sim uArch: Shader 5 bind to kernel 2 '_Z13lud_perimeterPfii'
GPGPU-Sim uArch: core:  5, cta: 0 initialized @(1,15367)
GPGPU-Sim uArch: Shader 6 bind to kernel 2 '_Z13lud_perimeterPfii'
GPGPU-Sim uArch: core:  6, cta: 0 initialized @(1,15367)
GPGPU-Sim uArch: Shader 7 bind to kernel 2 '_Z13lud_perimeterPfii'
GPGPU-Sim uArch: core:  7, cta: 0 initialized @(1,15367)
GPGPU-Sim uArch: Shader 8 bind to kernel 2 '_Z13lud_perimeterPfii'
GPGPU-Sim uArch: core:  8, cta: 0 initialized @(1,15367)
GPGPU-Sim uArch: Shader 9 bind to kernel 2 '_Z13lud_perimeterPfii'
GPGPU-Sim uArch: core:  9, cta: 0 initialized @(1,15367)
GPGPU-Sim uArch: Shader 10 bind to kernel 2 '_Z13lud_perimeterPfii'
GPGPU-Sim uArch: core: 10, cta: 0 initialized @(1,15367)
GPGPU-Sim uArch: Shader 11 bind to kernel 2 '_Z13lud_perimeterPfii'
GPGPU-Sim uArch: core: 11, cta: 0 initialized @(1,15367)
GPGPU-Sim uArch: Shader 12 bind to kernel 2 '_Z13lud_perimeterPfii'
GPGPU-Sim uArch: core: 12, cta: 0 initialized @(1,15367)
GPGPU-Sim uArch: Shader 13 bind to kernel 2 '_Z13lud_perimeterPfii'
GPGPU-Sim uArch: core: 13, cta: 0 initialized @(1,15367)
GPGPU-Sim uArch: Shader 0 bind to kernel 2 '_Z13lud_perimeterPfii'
GPGPU-Sim uArch: core:  0, cta: 0 initialized @(1,15367)
GPGPU-Sim uArch: Shader 1 bind to kernel 2 '_Z13lud_perimeterPfii'
GPGPU-Sim uArch: core:  1, cta: 0 initialized @(1,15367)
GPGPU-Sim uArch: core:  2, cta: 1 initialized @(2,15367)
GPGPU-Sim uArch: Shader 3 finished CTA #0 (28444,15367), 0 CTAs running
GPGPU-Sim uArch: Shader 3 empty (release kernel 2 '_Z13lud_perimeterPfii').
GPGPU-Sim uArch: Shader 6 finished CTA #0 (28448,15367), 0 CTAs running
GPGPU-Sim uArch: Shader 6 empty (release kernel 2 '_Z13lud_perimeterPfii').
GPGPU-Sim uArch: Shader 5 finished CTA #0 (28456,15367), 0 CTAs running
GPGPU-Sim uArch: Shader 5 empty (release kernel 2 '_Z13lud_perimeterPfii').
GPGPU-Sim uArch: Shader 4 finished CTA #0 (28466,15367), 0 CTAs running
GPGPU-Sim uArch: Shader 4 empty (release kernel 2 '_Z13lud_perimeterPfii').
GPGPU-Sim uArch: Shader 7 finished CTA #0 (28470,15367), 0 CTAs running
GPGPU-Sim uArch: Shader 7 empty (release kernel 2 '_Z13lud_perimeterPfii').
GPGPU-Sim uArch: Shader 2 finished CTA #0 (28472,15367), 1 CTAs running
GPGPU-Sim uArch: Shader 2 finished CTA #1 (28478,15367), 0 CTAs running
GPGPU-Sim uArch: Shader 2 empty (release kernel 2 '_Z13lud_perimeterPfii').
GPGPU-Sim uArch: Shader 9 finished CTA #0 (28480,15367), 0 CTAs running
GPGPU-Sim uArch: Shader 9 empty (release kernel 2 '_Z13lud_perimeterPfii').
GPGPU-Sim uArch: Shader 10 finished CTA #0 (28488,15367), 0 CTAs running
GPGPU-Sim uArch: Shader 10 empty (release kernel 2 '_Z13lud_perimeterPfii').
GPGPU-Sim uArch: Shader 1 finished CTA #0 (28492,15367), 0 CTAs running
GPGPU-Sim uArch: Shader 1 empty (release kernel 2 '_Z13lud_perimeterPfii').
GPGPU-Sim uArch: Shader 8 finished CTA #0 (28496,15367), 0 CTAs running
GPGPU-Sim uArch: Shader 8 empty (release kernel 2 '_Z13lud_perimeterPfii').
GPGPU-Sim uArch: Shader 12 finished CTA #0 (28502,15367), 0 CTAs running
GPGPU-Sim uArch: Shader 12 empty (release kernel 2 '_Z13lud_perimeterPfii').
GPGPU-Sim uArch: Shader 11 finished CTA #0 (28508,15367), 0 CTAs running
GPGPU-Sim uArch: Shader 11 empty (release kernel 2 '_Z13lud_perimeterPfii').
GPGPU-Sim uArch: Shader 13 finished CTA #0 (28514,15367), 0 CTAs running
GPGPU-Sim uArch: Shader 13 empty (release kernel 2 '_Z13lud_perimeterPfii').
GPGPU-Sim uArch: Shader 0 finished CTA #0 (28520,15367), 0 CTAs running
GPGPU-Sim uArch: Shader 0 empty (release kernel 2 '_Z13lud_perimeterPfii').
GPGPU-Sim uArch: GPU detected kernel '_Z13lud_perimeterPfii' finished on shader 0.
kernel_name = _Z13lud_perimeterPfii 
kernel_launch_uid = 2 
gpu_sim_cycle = 28521
gpu_sim_insn = 878160
gpu_ipc =      30.7899
gpu_tot_sim_cycle = 43888
gpu_tot_sim_insn = 897397
gpu_tot_ipc =      20.4474
gpu_tot_issued_cta = 0
gpu_stall_dramfull = 1926
gpu_stall_icnt2sh    = 2642
gpu_total_sim_rate=224349

========= Core cache stats =========
L1I_cache:
	L1I_total_cache_accesses = 33225
	L1I_total_cache_misses = 601
	L1I_total_cache_miss_rate = 0.0181
	L1I_total_cache_pending_hits = 0
	L1I_total_cache_reservation_fails = 0
L1D_cache:
	L1D_cache_core[0]: Access = 79, Miss = 48, Miss_rate = 0.608, Pending_hits = 0, Reservation_fails = 0
	L1D_cache_core[1]: Access = 110, Miss = 63, Miss_rate = 0.573, Pending_hits = 0, Reservation_fails = 0
	L1D_cache_core[2]: Access = 158, Miss = 95, Miss_rate = 0.601, Pending_hits = 8, Reservation_fails = 0
	L1D_cache_core[3]: Access = 79, Miss = 48, Miss_rate = 0.608, Pending_hits = 0, Reservation_fails = 0
	L1D_cache_core[4]: Access = 79, Miss = 48, Miss_rate = 0.608, Pending_hits = 0, Reservation_fails = 0
	L1D_cache_core[5]: Access = 79, Miss = 48, Miss_rate = 0.608, Pending_hits = 0, Reservation_fails = 0
	L1D_cache_core[6]: Access = 79, Miss = 48, Miss_rate = 0.608, Pending_hits = 0, Reservation_fails = 0
	L1D_cache_core[7]: Access = 79, Miss = 48, Miss_rate = 0.608, Pending_hits = 0, Reservation_fails = 0
	L1D_cache_core[8]: Access = 79, Miss = 48, Miss_rate = 0.608, Pending_hits = 0, Reservation_fails = 0
	L1D_cache_core[9]: Access = 79, Miss = 48, Miss_rate = 0.608, Pending_hits = 0, Reservation_fails = 0
	L1D_cache_core[10]: Access = 79, Miss = 48, Miss_rate = 0.608, Pending_hits = 0, Reservation_fails = 0
	L1D_cache_core[11]: Access = 79, Miss = 48, Miss_rate = 0.608, Pending_hits = 0, Reservation_fails = 0
	L1D_cache_core[12]: Access = 79, Miss = 48, Miss_rate = 0.608, Pending_hits = 0, Reservation_fails = 0
	L1D_cache_core[13]: Access = 79, Miss = 48, Miss_rate = 0.608, Pending_hits = 0, Reservation_fails = 0
	L1D_total_cache_accesses = 1216
	L1D_total_cache_misses = 734
	L1D_total_cache_miss_rate = 0.6036
	L1D_total_cache_pending_hits = 8
	L1D_total_cache_reservation_fails = 0
	L1D_cache_data_port_util = 0.001
	L1D_cache_fill_port_util = 0.002
L1C_cache:
	L1C_total_cache_accesses = 0
	L1C_total_cache_misses = 0
	L1C_total_cache_pending_hits = 0
	L1C_total_cache_reservation_fails = 0
L1T_cache:
	L1T_total_cache_accesses = 0
	L1T_total_cache_misses = 0
	L1T_total_cache_pending_hits = 0
	L1T_total_cache_reservation_fails = 0

Total_core_cache_stats:
	Total_core_cache_stats_breakdown[GLOBAL_ACC_R][HIT] = 25
	Total_core_cache_stats_breakdown[GLOBAL_ACC_R][HIT_RESERVED] = 8
	Total_core_cache_stats_breakdown[GLOBAL_ACC_R][MISS] = 703
	Total_core_cache_stats_breakdown[GLOBAL_ACC_W][HIT] = 449
	Total_core_cache_stats_breakdown[GLOBAL_ACC_W][MISS] = 31
	Total_core_cache_stats_breakdown[INST_ACC_R][HIT] = 32624
	Total_core_cache_stats_breakdown[INST_ACC_R][MISS] = 601
Shader 0 warp_id issue ditsribution:
warp_id:
0, 
distro:
3711, 
gpgpu_n_tot_thrd_icount = 1864832
gpgpu_n_tot_w_icount = 58276
gpgpu_n_stall_shd_mem = 29064
gpgpu_n_mem_read_local = 0
gpgpu_n_mem_write_local = 0
gpgpu_n_mem_read_global = 703
gpgpu_n_mem_write_global = 480
gpgpu_n_mem_texture = 0
gpgpu_n_mem_const = 0
gpgpu_n_load_insn  = 11776
gpgpu_n_store_insn = 7680
gpgpu_n_shmem_insn = 154224
gpgpu_n_tex_insn = 0
gpgpu_n_const_mem_insn = 0
gpgpu_n_param_mem_insn = 0
gpgpu_n_shmem_bkconflict = 0
gpgpu_n_cache_bkconflict = 0
gpgpu_n_intrawarp_mshr_merge = 0
gpgpu_n_cmem_portconflict = 0
gpgpu_stall_shd_mem[c_mem][bk_conf] = 0
gpgpu_stall_shd_mem[c_mem][mshr_rc] = 0
gpgpu_stall_shd_mem[c_mem][icnt_rc] = 0
gpgpu_stall_shd_mem[c_mem][data_port_stall] = 0
gpgpu_stall_shd_mem[t_mem][mshr_rc] = 0
gpgpu_stall_shd_mem[t_mem][icnt_rc] = 0
gpgpu_stall_shd_mem[t_mem][data_port_stall] = 0
gpgpu_stall_shd_mem[s_mem][bk_conf] = 29064
gpgpu_stall_shd_mem[gl_mem][bk_conf] = 0
gpgpu_stall_shd_mem[gl_mem][coal_stall] = 0
gpgpu_stall_shd_mem[gl_mem][data_port_stall] = 0
gpgpu_stall_shd_mem[g_mem_ld][mshr_rc] = 0
gpgpu_stall_shd_mem[g_mem_ld][icnt_rc] = 0
gpgpu_stall_shd_mem[g_mem_ld][wb_icnt_rc] = 0
gpgpu_stall_shd_mem[g_mem_ld][wb_rsrv_fail] = 0
gpgpu_stall_shd_mem[g_mem_st][mshr_rc] = 0
gpgpu_stall_shd_mem[g_mem_st][icnt_rc] = 0
gpgpu_stall_shd_mem[g_mem_st][wb_icnt_rc] = 0
gpgpu_stall_shd_mem[g_mem_st][wb_rsrv_fail] = 0
gpgpu_stall_shd_mem[l_mem_ld][mshr_rc] = 0
gpgpu_stall_shd_mem[l_mem_ld][icnt_rc] = 0
gpgpu_stall_shd_mem[l_mem_ld][wb_icnt_rc] = 0
gpgpu_stall_shd_mem[l_mem_ld][wb_rsrv_fail] = 0
gpgpu_stall_shd_mem[l_mem_st][mshr_rc] = 0
gpgpu_stall_shd_mem[l_mem_st][icnt_rc] = 0
gpgpu_stall_shd_mem[l_mem_ld][wb_icnt_rc] = 0
gpgpu_stall_shd_mem[l_mem_ld][wb_rsrv_fail] = 0
gpu_reg_bank_conflict_stalls = 0
Warp Occupancy Distribution:
Stall:33	W0_Idle:571043	W0_Scoreboard:198960	W1:252	W2:237	W3:222	W4:207	W5:192	W6:177	W7:162	W8:147	W9:132	W10:117	W11:102	W12:87	W13:72	W14:57	W15:35	W16:55883	W17:0	W18:0	W19:0	W20:0	W21:0	W22:0	W23:0	W24:0	W25:0	W26:0	W27:0	W28:0	W29:0	W30:0	W31:0	W32:195
traffic_breakdown_coretomem[GLOBAL_ACC_R] = 5624 {8:703,}
traffic_breakdown_coretomem[GLOBAL_ACC_W] = 34560 {72:480,}
traffic_breakdown_coretomem[INST_ACC_R] = 4504 {8:563,}
traffic_breakdown_memtocore[GLOBAL_ACC_R] = 95608 {136:703,}
traffic_breakdown_memtocore[GLOBAL_ACC_W] = 3840 {8:480,}
traffic_breakdown_memtocore[INST_ACC_R] = 76568 {136:563,}
Memory Partition 0: 
Cache L2_bank_000:
MSHR contents

Cache L2_bank_001:
MSHR contents

In Dram Latency Queue (total = 0): 
DRAM[0]: 16 bks, busW=4 BL=8 CL=12, tRRD=2 tCCD=6, tRCD=12 tRAS=28 tRP=12 tRC=40
n_cmd=57243 n_nop=57014 n_act=9 n_pre=0 n_req=110 n_rd=220 n_write=0 bw_util=0.007687
n_activity=1217 dram_eff=0.3615
bk0: 12a 57206i bk1: 8a 57213i bk2: 0a 57241i bk3: 0a 57241i bk4: 20a 57193i bk5: 20a 57189i bk6: 32a 57143i bk7: 0a 57241i bk8: 32a 57140i bk9: 0a 57243i bk10: 32a 57141i bk11: 0a 57244i bk12: 32a 57109i bk13: 0a 57242i bk14: 32a 57074i bk15: 0a 57242i 
dram_util_bins: 0 0 0 0 0 0 0 0 0 0
dram_eff_bins: 0 0 0 0 0 0 0 0 0 0
mrqq: max=2 avg=0.000925877
Memory Partition 1: 
Cache L2_bank_002:
MSHR contents

Cache L2_bank_003:
MSHR contents

In Dram Latency Queue (total = 0): 
DRAM[1]: 16 bks, busW=4 BL=8 CL=12, tRRD=2 tCCD=6, tRCD=12 tRAS=28 tRP=12 tRC=40
n_cmd=57243 n_nop=57181 n_act=4 n_pre=0 n_req=29 n_rd=58 n_write=0 bw_util=0.002026
n_activity=486 dram_eff=0.2387
bk0: 12a 57208i bk1: 6a 57219i bk2: 0a 57242i bk3: 0a 57242i bk4: 20a 57188i bk5: 20a 57186i bk6: 0a 57242i bk7: 0a 57242i bk8: 0a 57242i bk9: 0a 57243i bk10: 0a 57243i bk11: 0a 57244i bk12: 0a 57244i bk13: 0a 57244i bk14: 0a 57244i bk15: 0a 57244i 
dram_util_bins: 0 0 0 0 0 0 0 0 0 0
dram_eff_bins: 0 0 0 0 0 0 0 0 0 0
mrqq: max=0 avg=0
Memory Partition 2: 
Cache L2_bank_004:
MSHR contents

Cache L2_bank_005:
MSHR contents

In Dram Latency Queue (total = 0): 
DRAM[2]: 16 bks, busW=4 BL=8 CL=12, tRRD=2 tCCD=6, tRCD=12 tRAS=28 tRP=12 tRC=40
n_cmd=57243 n_nop=57014 n_act=9 n_pre=0 n_req=110 n_rd=220 n_write=0 bw_util=0.007687
n_activity=1185 dram_eff=0.3713
bk0: 12a 57206i bk1: 4a 57221i bk2: 0a 57241i bk3: 0a 57244i bk4: 20a 57190i bk5: 24a 57179i bk6: 0a 57242i bk7: 32a 57147i bk8: 0a 57242i bk9: 32a 57143i bk10: 0a 57241i bk11: 32a 57126i bk12: 0a 57244i bk13: 32a 57114i bk14: 0a 57244i bk15: 32a 57130i 
dram_util_bins: 0 0 0 0 0 0 0 0 0 0
dram_eff_bins: 0 0 0 0 0 0 0 0 0 0
mrqq: max=3 avg=0.00239331
Memory Partition 3: 
Cache L2_bank_006:
MSHR contents

Cache L2_bank_007:
MSHR contents

In Dram Latency Queue (total = 0): 
DRAM[3]: 16 bks, busW=4 BL=8 CL=12, tRRD=2 tCCD=6, tRCD=12 tRAS=28 tRP=12 tRC=40
n_cmd=57243 n_nop=57177 n_act=4 n_pre=0 n_req=31 n_rd=62 n_write=0 bw_util=0.002166
n_activity=505 dram_eff=0.2455
bk0: 12a 57207i bk1: 6a 57218i bk2: 0a 57241i bk3: 0a 57245i bk4: 20a 57192i bk5: 24a 57169i bk6: 0a 57241i bk7: 0a 57242i bk8: 0a 57242i bk9: 0a 57243i bk10: 0a 57243i bk11: 0a 57243i bk12: 0a 57243i bk13: 0a 57243i bk14: 0a 57243i bk15: 0a 57244i 
dram_util_bins: 0 0 0 0 0 0 0 0 0 0
dram_eff_bins: 0 0 0 0 0 0 0 0 0 0
mrqq: max=1 avg=3.49388e-05
Memory Partition 4: 
Cache L2_bank_008:
MSHR contents

Cache L2_bank_009:
MSHR contents

In Dram Latency Queue (total = 0): 
DRAM[4]: 16 bks, busW=4 BL=8 CL=12, tRRD=2 tCCD=6, tRCD=12 tRAS=28 tRP=12 tRC=40
n_cmd=57243 n_nop=57010 n_act=9 n_pre=0 n_req=112 n_rd=224 n_write=0 bw_util=0.007826
n_activity=1225 dram_eff=0.3657
bk0: 12a 57206i bk1: 8a 57213i bk2: 0a 57241i bk3: 0a 57242i bk4: 20a 57192i bk5: 24a 57180i bk6: 32a 57147i bk7: 0a 57241i bk8: 32a 57158i bk9: 0a 57242i bk10: 32a 57145i bk11: 0a 57244i bk12: 32a 57131i bk13: 0a 57243i bk14: 32a 57094i bk15: 0a 57241i 
dram_util_bins: 0 0 0 0 0 0 0 0 0 0
dram_eff_bins: 0 0 0 0 0 0 0 0 0 0
mrqq: max=2 avg=0.00162465
Memory Partition 5: 
Cache L2_bank_010:
MSHR contents

Cache L2_bank_011:
MSHR contents

In Dram Latency Queue (total = 0): 
DRAM[5]: 16 bks, busW=4 BL=8 CL=12, tRRD=2 tCCD=6, tRCD=12 tRAS=28 tRP=12 tRC=40
n_cmd=57243 n_nop=57175 n_act=4 n_pre=0 n_req=32 n_rd=64 n_write=0 bw_util=0.002236
n_activity=538 dram_eff=0.2379
bk0: 12a 57207i bk1: 8a 57214i bk2: 0a 57241i bk3: 0a 57244i bk4: 20a 57192i bk5: 24a 57179i bk6: 0a 57241i bk7: 0a 57242i bk8: 0a 57242i bk9: 0a 57243i bk10: 0a 57243i bk11: 0a 57243i bk12: 0a 57243i bk13: 0a 57243i bk14: 0a 57244i bk15: 0a 57244i 
dram_util_bins: 0 0 0 0 0 0 0 0 0 0
dram_eff_bins: 0 0 0 0 0 0 0 0 0 0
mrqq: max=0 avg=0

========= L2 cache stats =========
L2_cache_bank[0]: Access = 323, Miss = 96, Miss_rate = 0.297, Pending_hits = 17, Reservation_fails = 376
L2_cache_bank[1]: Access = 96, Miss = 14, Miss_rate = 0.146, Pending_hits = 20, Reservation_fails = 273
L2_cache_bank[2]: Access = 98, Miss = 16, Miss_rate = 0.163, Pending_hits = 22, Reservation_fails = 335
L2_cache_bank[3]: Access = 82, Miss = 13, Miss_rate = 0.159, Pending_hits = 18, Reservation_fails = 258
L2_cache_bank[4]: Access = 98, Miss = 16, Miss_rate = 0.163, Pending_hits = 19, Reservation_fails = 273
L2_cache_bank[5]: Access = 309, Miss = 94, Miss_rate = 0.304, Pending_hits = 12, Reservation_fails = 191
L2_cache_bank[6]: Access = 98, Miss = 16, Miss_rate = 0.163, Pending_hits = 15, Reservation_fails = 182
L2_cache_bank[7]: Access = 73, Miss = 15, Miss_rate = 0.205, Pending_hits = 18, Reservation_fails = 165
L2_cache_bank[8]: Access = 323, Miss = 96, Miss_rate = 0.297, Pending_hits = 14, Reservation_fails = 270
L2_cache_bank[9]: Access = 74, Miss = 16, Miss_rate = 0.216, Pending_hits = 18, Reservation_fails = 176
L2_cache_bank[10]: Access = 98, Miss = 16, Miss_rate = 0.163, Pending_hits = 20, Reservation_fails = 267
L2_cache_bank[11]: Access = 74, Miss = 16, Miss_rate = 0.216, Pending_hits = 17, Reservation_fails = 188
L2_total_cache_accesses = 1746
L2_total_cache_misses = 424
L2_total_cache_miss_rate = 0.2428
L2_total_cache_pending_hits = 210
L2_total_cache_reservation_fails = 2954
L2_total_cache_breakdown:
	L2_cache_stats_breakdown[GLOBAL_ACC_R][HIT] = 227
	L2_cache_stats_breakdown[GLOBAL_ACC_R][HIT_RESERVED] = 108
	L2_cache_stats_breakdown[GLOBAL_ACC_R][MISS] = 368
	L2_cache_stats_breakdown[GLOBAL_ACC_W][HIT] = 480
	L2_cache_stats_breakdown[INST_ACC_R][HIT] = 405
	L2_cache_stats_breakdown[INST_ACC_R][HIT_RESERVED] = 102
	L2_cache_stats_breakdown[INST_ACC_R][MISS] = 56
	L2_cache_stats_breakdown[INST_ACC_R][RESERVATION_FAIL] = 2954
L2_cache_data_port_util = 0.007
L2_cache_fill_port_util = 0.003

icnt_total_pkts_mem_to_simt=6810
icnt_total_pkts_simt_to_mem=2706
LD_mem_lat_dist  0 0 0 0 0 0 0 0 0 0 0 0 0 0 0 0 0 0 0 0 0 0 0 0 0 0 0
ST_mem_lat_dist  0 0 0 0 0 0 0 0 0 0 0 0 0 0 0 0 0 0 0 0 0 0 0 0 0 0 0
----------------------------Interconnect-DETAILS--------------------------------
Class 0:
Packet latency average = 10.1914
	minimum = 6
	maximum = 42
Network latency average = 9.07538
	minimum = 6
	maximum = 33
Slowest packet = 1346
Flit latency average = 8.04807
	minimum = 6
	maximum = 32
Slowest flit = 259
Fragmentation average = 0
	minimum = 0
	maximum = 0
Injected packet rate average = 0.00457962
	minimum = 0.00252446 (at node 21)
	maximum = 0.0109042 (at node 14)
Accepted packet rate average = 0.00457962
	minimum = 0.00252446 (at node 21)
	maximum = 0.0109042 (at node 14)
Injected flit rate average = 0.0124847
	minimum = 0.00627608 (at node 1)
	maximum = 0.0411977 (at node 14)
Accepted flit rate average= 0.0124847
	minimum = 0.00392693 (at node 21)
	maximum = 0.0202307 (at node 2)
Injected packet length average = 2.72615
Accepted packet length average = 2.72615
Total in-flight flits = 0 (0 measured)
====== Overall Traffic Statistics ======
====== Traffic class 0 ======
Packet latency average = 8.98633 (2 samples)
	minimum = 6 (2 samples)
	maximum = 28 (2 samples)
Network latency average = 8.42311 (2 samples)
	minimum = 6 (2 samples)
	maximum = 23.5 (2 samples)
Flit latency average = 7.08605 (2 samples)
	minimum = 6 (2 samples)
	maximum = 21 (2 samples)
Fragmentation average = 0 (2 samples)
	minimum = 0 (2 samples)
	maximum = 0 (2 samples)
Injected packet rate average = 0.00240995 (2 samples)
	minimum = 0.00126223 (2 samples)
	maximum = 0.00701391 (2 samples)
Accepted packet rate average = 0.00240995 (2 samples)
	minimum = 0.00126223 (2 samples)
	maximum = 0.00701391 (2 samples)
Injected flit rate average = 0.00656523 (2 samples)
	minimum = 0.00313804 (2 samples)
	maximum = 0.0231368 (2 samples)
Accepted flit rate average = 0.00656523 (2 samples)
	minimum = 0.00196347 (2 samples)
	maximum = 0.0159721 (2 samples)
Injected packet size average = 2.72422 (2 samples)
Accepted packet size average = 2.72422 (2 samples)
Hops average = 1 (2 samples)
----------------------------END-of-Interconnect-DETAILS-------------------------


gpgpu_simulation_time = 0 days, 0 hrs, 0 min, 4 sec (4 sec)
gpgpu_simulation_rate = 224349 (inst/sec)
gpgpu_simulation_rate = 10972 (cycle/sec)

GPGPU-Sim PTX: cudaLaunch for 0x0x401ea0 (mode=performance simulation) on stream 0
GPGPU-Sim PTX: pushing kernel '_Z12lud_internalPfii' to stream 0, gridDim= (15,15,1) blockDim = (16,16,1) 
kernel '_Z12lud_internalPfii' transfer to GPU hardware scheduler
GPGPU-Sim uArch: Shader 3 bind to kernel 3 '_Z12lud_internalPfii'
GPGPU-Sim uArch: CTA/core = 6, limited by: threads
GPGPU-Sim uArch: core:  3, cta: 0 initialized @(1,43888)
GPGPU-Sim uArch: Shader 4 bind to kernel 3 '_Z12lud_internalPfii'
GPGPU-Sim uArch: core:  4, cta: 0 initialized @(1,43888)
GPGPU-Sim uArch: Shader 5 bind to kernel 3 '_Z12lud_internalPfii'
GPGPU-Sim uArch: core:  5, cta: 0 initialized @(1,43888)
GPGPU-Sim uArch: Shader 6 bind to kernel 3 '_Z12lud_internalPfii'
GPGPU-Sim uArch: core:  6, cta: 0 initialized @(1,43888)
GPGPU-Sim uArch: Shader 7 bind to kernel 3 '_Z12lud_internalPfii'
GPGPU-Sim uArch: core:  7, cta: 0 initialized @(1,43888)
GPGPU-Sim uArch: Shader 8 bind to kernel 3 '_Z12lud_internalPfii'
GPGPU-Sim uArch: core:  8, cta: 0 initialized @(1,43888)
GPGPU-Sim uArch: Shader 9 bind to kernel 3 '_Z12lud_internalPfii'
GPGPU-Sim uArch: core:  9, cta: 0 initialized @(1,43888)
GPGPU-Sim uArch: Shader 10 bind to kernel 3 '_Z12lud_internalPfii'
GPGPU-Sim uArch: core: 10, cta: 0 initialized @(1,43888)
GPGPU-Sim uArch: Shader 11 bind to kernel 3 '_Z12lud_internalPfii'
GPGPU-Sim uArch: core: 11, cta: 0 initialized @(1,43888)
GPGPU-Sim uArch: Shader 12 bind to kernel 3 '_Z12lud_internalPfii'
GPGPU-Sim uArch: core: 12, cta: 0 initialized @(1,43888)
GPGPU-Sim uArch: Shader 13 bind to kernel 3 '_Z12lud_internalPfii'
GPGPU-Sim uArch: core: 13, cta: 0 initialized @(1,43888)
GPGPU-Sim uArch: Shader 0 bind to kernel 3 '_Z12lud_internalPfii'
GPGPU-Sim uArch: core:  0, cta: 0 initialized @(1,43888)
GPGPU-Sim uArch: Shader 1 bind to kernel 3 '_Z12lud_internalPfii'
GPGPU-Sim uArch: core:  1, cta: 0 initialized @(1,43888)
GPGPU-Sim uArch: Shader 2 bind to kernel 3 '_Z12lud_internalPfii'
GPGPU-Sim uArch: core:  2, cta: 0 initialized @(1,43888)
GPGPU-Sim uArch: core:  3, cta: 1 initialized @(2,43888)
GPGPU-Sim uArch: core:  4, cta: 1 initialized @(2,43888)
GPGPU-Sim uArch: core:  5, cta: 1 initialized @(2,43888)
GPGPU-Sim uArch: core:  6, cta: 1 initialized @(2,43888)
GPGPU-Sim uArch: core:  7, cta: 1 initialized @(2,43888)
GPGPU-Sim uArch: core:  8, cta: 1 initialized @(2,43888)
GPGPU-Sim uArch: core:  9, cta: 1 initialized @(2,43888)
GPGPU-Sim uArch: core: 10, cta: 1 initialized @(2,43888)
GPGPU-Sim uArch: core: 11, cta: 1 initialized @(2,43888)
GPGPU-Sim uArch: core: 12, cta: 1 initialized @(2,43888)
GPGPU-Sim uArch: core: 13, cta: 1 initialized @(2,43888)
GPGPU-Sim uArch: core:  0, cta: 1 initialized @(2,43888)
GPGPU-Sim uArch: core:  1, cta: 1 initialized @(2,43888)
GPGPU-Sim uArch: core:  2, cta: 1 initialized @(2,43888)
GPGPU-Sim uArch: core:  3, cta: 2 initialized @(3,43888)
GPGPU-Sim uArch: core:  4, cta: 2 initialized @(3,43888)
GPGPU-Sim uArch: core:  5, cta: 2 initialized @(3,43888)
GPGPU-Sim uArch: core:  6, cta: 2 initialized @(3,43888)
GPGPU-Sim uArch: core:  7, cta: 2 initialized @(3,43888)
GPGPU-Sim uArch: core:  8, cta: 2 initialized @(3,43888)
GPGPU-Sim uArch: core:  9, cta: 2 initialized @(3,43888)
GPGPU-Sim uArch: core: 10, cta: 2 initialized @(3,43888)
GPGPU-Sim uArch: core: 11, cta: 2 initialized @(3,43888)
GPGPU-Sim uArch: core: 12, cta: 2 initialized @(3,43888)
GPGPU-Sim uArch: core: 13, cta: 2 initialized @(3,43888)
GPGPU-Sim uArch: core:  0, cta: 2 initialized @(3,43888)
GPGPU-Sim uArch: core:  1, cta: 2 initialized @(3,43888)
GPGPU-Sim uArch: core:  2, cta: 2 initialized @(3,43888)
GPGPU-Sim uArch: core:  3, cta: 3 initialized @(4,43888)
GPGPU-Sim uArch: core:  4, cta: 3 initialized @(4,43888)
GPGPU-Sim uArch: core:  5, cta: 3 initialized @(4,43888)
GPGPU-Sim uArch: core:  6, cta: 3 initialized @(4,43888)
GPGPU-Sim uArch: core:  7, cta: 3 initialized @(4,43888)
GPGPU-Sim uArch: core:  8, cta: 3 initialized @(4,43888)
GPGPU-Sim uArch: core:  9, cta: 3 initialized @(4,43888)
GPGPU-Sim uArch: core: 10, cta: 3 initialized @(4,43888)
GPGPU-Sim uArch: core: 11, cta: 3 initialized @(4,43888)
GPGPU-Sim uArch: core: 12, cta: 3 initialized @(4,43888)
GPGPU-Sim uArch: core: 13, cta: 3 initialized @(4,43888)
GPGPU-Sim uArch: core:  0, cta: 3 initialized @(4,43888)
GPGPU-Sim uArch: core:  1, cta: 3 initialized @(4,43888)
GPGPU-Sim uArch: core:  2, cta: 3 initialized @(4,43888)
GPGPU-Sim uArch: core:  3, cta: 4 initialized @(5,43888)
GPGPU-Sim uArch: core:  4, cta: 4 initialized @(5,43888)
GPGPU-Sim uArch: core:  5, cta: 4 initialized @(5,43888)
GPGPU-Sim uArch: core:  6, cta: 4 initialized @(5,43888)
GPGPU-Sim uArch: core:  7, cta: 4 initialized @(5,43888)
GPGPU-Sim uArch: core:  8, cta: 4 initialized @(5,43888)
GPGPU-Sim uArch: core:  9, cta: 4 initialized @(5,43888)
GPGPU-Sim uArch: core: 10, cta: 4 initialized @(5,43888)
GPGPU-Sim uArch: core: 11, cta: 4 initialized @(5,43888)
GPGPU-Sim uArch: core: 12, cta: 4 initialized @(5,43888)
GPGPU-Sim uArch: core: 13, cta: 4 initialized @(5,43888)
GPGPU-Sim uArch: core:  0, cta: 4 initialized @(5,43888)
GPGPU-Sim uArch: core:  1, cta: 4 initialized @(5,43888)
GPGPU-Sim uArch: core:  2, cta: 4 initialized @(5,43888)
GPGPU-Sim uArch: core:  3, cta: 5 initialized @(6,43888)
GPGPU-Sim uArch: core:  4, cta: 5 initialized @(6,43888)
GPGPU-Sim uArch: core:  5, cta: 5 initialized @(6,43888)
GPGPU-Sim uArch: core:  6, cta: 5 initialized @(6,43888)
GPGPU-Sim uArch: core:  7, cta: 5 initialized @(6,43888)
GPGPU-Sim uArch: core:  8, cta: 5 initialized @(6,43888)
GPGPU-Sim uArch: core:  9, cta: 5 initialized @(6,43888)
GPGPU-Sim uArch: core: 10, cta: 5 initialized @(6,43888)
GPGPU-Sim uArch: core: 11, cta: 5 initialized @(6,43888)
GPGPU-Sim uArch: core: 12, cta: 5 initialized @(6,43888)
GPGPU-Sim uArch: core: 13, cta: 5 initialized @(6,43888)
GPGPU-Sim uArch: core:  0, cta: 5 initialized @(6,43888)
GPGPU-Sim uArch: core:  1, cta: 5 initialized @(6,43888)
GPGPU-Sim uArch: core:  2, cta: 5 initialized @(6,43888)
GPGPU-Sim uArch: Shader 4 finished CTA #0 (5117,43888), 5 CTAs running
GPGPU-Sim uArch: core:  4, cta: 0 initialized @(5118,43888)
GPGPU-Sim uArch: Shader 0 finished CTA #0 (5134,43888), 5 CTAs running
GPGPU-Sim uArch: core:  0, cta: 0 initialized @(5135,43888)
GPGPU-Sim uArch: Shader 12 finished CTA #0 (5160,43888), 5 CTAs running
GPGPU-Sim uArch: core: 12, cta: 0 initialized @(5161,43888)
GPGPU-Sim uArch: Shader 3 finished CTA #0 (5206,43888), 5 CTAs running
GPGPU-Sim uArch: core:  3, cta: 0 initialized @(5207,43888)
GPGPU-Sim uArch: Shader 1 finished CTA #0 (5231,43888), 5 CTAs running
GPGPU-Sim uArch: core:  1, cta: 0 initialized @(5232,43888)
GPGPU-Sim uArch: Shader 3 finished CTA #1 (5234,43888), 5 CTAs running
GPGPU-Sim uArch: core:  3, cta: 1 initialized @(5235,43888)
GPGPU-Sim uArch: Shader 12 finished CTA #1 (5244,43888), 5 CTAs running
GPGPU-Sim uArch: core: 12, cta: 1 initialized @(5245,43888)
GPGPU-Sim uArch: Shader 10 finished CTA #1 (5253,43888), 5 CTAs running
GPGPU-Sim uArch: core: 10, cta: 1 initialized @(5254,43888)
GPGPU-Sim uArch: Shader 10 finished CTA #0 (5254,43888), 5 CTAs running
GPGPU-Sim uArch: core: 10, cta: 0 initialized @(5255,43888)
GPGPU-Sim uArch: Shader 4 finished CTA #1 (5270,43888), 5 CTAs running
GPGPU-Sim uArch: core:  4, cta: 1 initialized @(5271,43888)
GPGPU-Sim uArch: Shader 2 finished CTA #0 (5305,43888), 5 CTAs running
GPGPU-Sim uArch: core:  2, cta: 0 initialized @(5306,43888)
GPGPU-Sim uArch: Shader 1 finished CTA #1 (5336,43888), 5 CTAs running
GPGPU-Sim uArch: core:  1, cta: 1 initialized @(5337,43888)
GPGPU-Sim uArch: Shader 2 finished CTA #1 (5367,43888), 5 CTAs running
GPGPU-Sim uArch: core:  2, cta: 1 initialized @(5368,43888)
GPGPU-Sim uArch: Shader 9 finished CTA #0 (5464,43888), 5 CTAs running
GPGPU-Sim uArch: core:  9, cta: 0 initialized @(5465,43888)
GPGPU-Sim uArch: Shader 11 finished CTA #0 (5470,43888), 5 CTAs running
GPGPU-Sim uArch: core: 11, cta: 0 initialized @(5471,43888)
GPGPU-Sim uArch: Shader 4 finished CTA #2 (5477,43888), 5 CTAs running
GPGPU-Sim uArch: core:  4, cta: 2 initialized @(5478,43888)
GPGPU-Sim uArch: Shader 13 finished CTA #0 (5490,43888), 5 CTAs running
GPGPU-Sim uArch: core: 13, cta: 0 initialized @(5491,43888)
GPGPU-Sim uArch: Shader 3 finished CTA #2 (5496,43888), 5 CTAs running
GPGPU-Sim uArch: core:  3, cta: 2 initialized @(5497,43888)
GPGPU-Sim uArch: Shader 9 finished CTA #1 (5552,43888), 5 CTAs running
GPGPU-Sim uArch: core:  9, cta: 1 initialized @(5553,43888)
GPGPU-Sim uArch: Shader 12 finished CTA #2 (5590,43888), 5 CTAs running
GPGPU-Sim uArch: core: 12, cta: 2 initialized @(5591,43888)
GPGPU-Sim uArch: Shader 5 finished CTA #0 (5602,43888), 5 CTAs running
GPGPU-Sim uArch: core:  5, cta: 0 initialized @(5603,43888)
GPGPU-Sim uArch: Shader 11 finished CTA #1 (5611,43888), 5 CTAs running
GPGPU-Sim uArch: core: 11, cta: 1 initialized @(5612,43888)
GPGPU-Sim uArch: Shader 13 finished CTA #1 (5632,43888), 5 CTAs running
GPGPU-Sim uArch: core: 13, cta: 1 initialized @(5633,43888)
GPGPU-Sim uArch: Shader 0 finished CTA #1 (5658,43888), 5 CTAs running
GPGPU-Sim uArch: core:  0, cta: 1 initialized @(5659,43888)
GPGPU-Sim uArch: Shader 2 finished CTA #2 (5672,43888), 5 CTAs running
GPGPU-Sim uArch: core:  2, cta: 2 initialized @(5673,43888)
GPGPU-Sim uArch: Shader 6 finished CTA #0 (5680,43888), 5 CTAs running
GPGPU-Sim uArch: core:  6, cta: 0 initialized @(5681,43888)
GPGPU-Sim uArch: Shader 3 finished CTA #3 (5790,43888), 5 CTAs running
GPGPU-Sim uArch: core:  3, cta: 3 initialized @(5791,43888)
GPGPU-Sim uArch: Shader 7 finished CTA #0 (5794,43888), 5 CTAs running
GPGPU-Sim uArch: core:  7, cta: 0 initialized @(5795,43888)
GPGPU-Sim uArch: Shader 8 finished CTA #0 (5822,43888), 5 CTAs running
GPGPU-Sim uArch: core:  8, cta: 0 initialized @(5823,43888)
GPGPU-Sim uArch: Shader 6 finished CTA #1 (5825,43888), 5 CTAs running
GPGPU-Sim uArch: core:  6, cta: 1 initialized @(5826,43888)
GPGPU-Sim uArch: Shader 10 finished CTA #2 (5838,43888), 5 CTAs running
GPGPU-Sim uArch: core: 10, cta: 2 initialized @(5839,43888)
GPGPU-Sim uArch: Shader 5 finished CTA #1 (5841,43888), 5 CTAs running
GPGPU-Sim uArch: core:  5, cta: 1 initialized @(5842,43888)
GPGPU-Sim uArch: Shader 11 finished CTA #2 (5853,43888), 5 CTAs running
GPGPU-Sim uArch: core: 11, cta: 2 initialized @(5854,43888)
GPGPU-Sim uArch: Shader 1 finished CTA #2 (5861,43888), 5 CTAs running
GPGPU-Sim uArch: core:  1, cta: 2 initialized @(5862,43888)
GPGPU-Sim uArch: Shader 13 finished CTA #2 (5905,43888), 5 CTAs running
GPGPU-Sim uArch: core: 13, cta: 2 initialized @(5906,43888)
GPGPU-Sim uArch: Shader 8 finished CTA #1 (5924,43888), 5 CTAs running
GPGPU-Sim uArch: core:  8, cta: 1 initialized @(5925,43888)
GPGPU-Sim uArch: Shader 2 finished CTA #3 (6014,43888), 5 CTAs running
GPGPU-Sim uArch: core:  2, cta: 3 initialized @(6015,43888)
GPGPU-Sim uArch: Shader 9 finished CTA #2 (6018,43888), 5 CTAs running
GPGPU-Sim uArch: core:  9, cta: 2 initialized @(6019,43888)
GPGPU-Sim uArch: Shader 0 finished CTA #2 (6065,43888), 5 CTAs running
GPGPU-Sim uArch: core:  0, cta: 2 initialized @(6066,43888)
GPGPU-Sim uArch: Shader 11 finished CTA #3 (6071,43888), 5 CTAs running
GPGPU-Sim uArch: core: 11, cta: 3 initialized @(6072,43888)
GPGPU-Sim uArch: Shader 10 finished CTA #3 (6133,43888), 5 CTAs running
GPGPU-Sim uArch: core: 10, cta: 3 initialized @(6134,43888)
GPGPU-Sim uArch: Shader 7 finished CTA #1 (6140,43888), 5 CTAs running
GPGPU-Sim uArch: core:  7, cta: 1 initialized @(6141,43888)
GPGPU-Sim uArch: Shader 12 finished CTA #3 (6195,43888), 5 CTAs running
GPGPU-Sim uArch: core: 12, cta: 3 initialized @(6196,43888)
GPGPU-Sim uArch: Shader 5 finished CTA #2 (6269,43888), 5 CTAs running
GPGPU-Sim uArch: core:  5, cta: 2 initialized @(6270,43888)
GPGPU-Sim uArch: Shader 1 finished CTA #3 (6298,43888), 5 CTAs running
GPGPU-Sim uArch: core:  1, cta: 3 initialized @(6299,43888)
GPGPU-Sim uArch: Shader 12 finished CTA #4 (6352,43888), 5 CTAs running
GPGPU-Sim uArch: core: 12, cta: 4 initialized @(6353,43888)
GPGPU-Sim uArch: Shader 4 finished CTA #3 (6358,43888), 5 CTAs running
GPGPU-Sim uArch: core:  4, cta: 3 initialized @(6359,43888)
GPGPU-Sim uArch: Shader 0 finished CTA #3 (6360,43888), 5 CTAs running
GPGPU-Sim uArch: core:  0, cta: 3 initialized @(6361,43888)
GPGPU-Sim uArch: Shader 4 finished CTA #4 (6367,43888), 5 CTAs running
GPGPU-Sim uArch: core:  4, cta: 4 initialized @(6368,43888)
GPGPU-Sim uArch: Shader 8 finished CTA #2 (6383,43888), 5 CTAs running
GPGPU-Sim uArch: core:  8, cta: 2 initialized @(6384,43888)
GPGPU-Sim uArch: Shader 9 finished CTA #3 (6395,43888), 5 CTAs running
GPGPU-Sim uArch: core:  9, cta: 3 initialized @(6396,43888)
GPGPU-Sim uArch: Shader 2 finished CTA #4 (6403,43888), 5 CTAs running
GPGPU-Sim uArch: core:  2, cta: 4 initialized @(6404,43888)
GPGPU-Sim uArch: Shader 3 finished CTA #4 (6436,43888), 5 CTAs running
GPGPU-Sim uArch: core:  3, cta: 4 initialized @(6437,43888)
GPGPU-Sim uArch: Shader 13 finished CTA #3 (6462,43888), 5 CTAs running
GPGPU-Sim uArch: core: 13, cta: 3 initialized @(6463,43888)
GPGPU-Sim uArch: Shader 11 finished CTA #4 (6625,43888), 5 CTAs running
GPGPU-Sim uArch: core: 11, cta: 4 initialized @(6626,43888)
GPGPU-Sim uArch: Shader 5 finished CTA #3 (6640,43888), 5 CTAs running
GPGPU-Sim uArch: core:  5, cta: 3 initialized @(6641,43888)
GPGPU-Sim uArch: Shader 10 finished CTA #4 (6799,43888), 5 CTAs running
GPGPU-Sim uArch: core: 10, cta: 4 initialized @(6800,43888)
GPGPU-Sim uArch: Shader 7 finished CTA #2 (6987,43888), 5 CTAs running
GPGPU-Sim uArch: core:  7, cta: 2 initialized @(6988,43888)
GPGPU-Sim uArch: Shader 6 finished CTA #2 (7031,43888), 5 CTAs running
GPGPU-Sim uArch: core:  6, cta: 2 initialized @(7032,43888)
GPGPU-Sim uArch: Shader 0 finished CTA #4 (7033,43888), 5 CTAs running
GPGPU-Sim uArch: core:  0, cta: 4 initialized @(7034,43888)
GPGPU-Sim uArch: Shader 3 finished CTA #5 (7127,43888), 5 CTAs running
GPGPU-Sim uArch: core:  3, cta: 5 initialized @(7128,43888)
GPGPU-Sim uArch: Shader 13 finished CTA #4 (7140,43888), 5 CTAs running
GPGPU-Sim uArch: core: 13, cta: 4 initialized @(7141,43888)
GPGPU-Sim uArch: Shader 4 finished CTA #5 (7283,43888), 5 CTAs running
GPGPU-Sim uArch: core:  4, cta: 5 initialized @(7284,43888)
GPGPU-Sim uArch: Shader 1 finished CTA #4 (7292,43888), 5 CTAs running
GPGPU-Sim uArch: core:  1, cta: 4 initialized @(7293,43888)
GPGPU-Sim uArch: Shader 6 finished CTA #4 (7379,43888), 5 CTAs running
GPGPU-Sim uArch: core:  6, cta: 4 initialized @(7380,43888)
GPGPU-Sim uArch: Shader 5 finished CTA #4 (7382,43888), 5 CTAs running
GPGPU-Sim uArch: core:  5, cta: 4 initialized @(7383,43888)
GPGPU-Sim uArch: Shader 2 finished CTA #5 (7385,43888), 5 CTAs running
GPGPU-Sim uArch: core:  2, cta: 5 initialized @(7386,43888)
GPGPU-Sim uArch: Shader 12 finished CTA #5 (7514,43888), 5 CTAs running
GPGPU-Sim uArch: core: 12, cta: 5 initialized @(7515,43888)
GPGPU-Sim uArch: Shader 8 finished CTA #3 (7522,43888), 5 CTAs running
GPGPU-Sim uArch: core:  8, cta: 3 initialized @(7523,43888)
GPGPU-Sim uArch: Shader 6 finished CTA #3 (7602,43888), 5 CTAs running
GPGPU-Sim uArch: core:  6, cta: 3 initialized @(7603,43888)
GPGPU-Sim uArch: Shader 9 finished CTA #4 (7611,43888), 5 CTAs running
GPGPU-Sim uArch: core:  9, cta: 4 initialized @(7612,43888)
GPGPU-Sim uArch: Shader 1 finished CTA #5 (7627,43888), 5 CTAs running
GPGPU-Sim uArch: core:  1, cta: 5 initialized @(7628,43888)
GPGPU-Sim uArch: Shader 4 finished CTA #0 (7905,43888), 5 CTAs running
GPGPU-Sim uArch: core:  4, cta: 0 initialized @(7906,43888)
GPGPU-Sim uArch: Shader 13 finished CTA #5 (7962,43888), 5 CTAs running
GPGPU-Sim uArch: core: 13, cta: 5 initialized @(7963,43888)
GPGPU-Sim uArch: Shader 0 finished CTA #5 (7980,43888), 5 CTAs running
GPGPU-Sim uArch: core:  0, cta: 5 initialized @(7981,43888)
GPGPU-Sim uArch: Shader 10 finished CTA #5 (7988,43888), 5 CTAs running
GPGPU-Sim uArch: core: 10, cta: 5 initialized @(7989,43888)
GPGPU-Sim uArch: Shader 6 finished CTA #5 (8120,43888), 5 CTAs running
GPGPU-Sim uArch: core:  6, cta: 5 initialized @(8121,43888)
GPGPU-Sim uArch: Shader 1 finished CTA #0 (8124,43888), 5 CTAs running
GPGPU-Sim uArch: core:  1, cta: 0 initialized @(8125,43888)
GPGPU-Sim uArch: Shader 8 finished CTA #4 (8136,43888), 5 CTAs running
GPGPU-Sim uArch: core:  8, cta: 4 initialized @(8137,43888)
GPGPU-Sim uArch: Shader 3 finished CTA #0 (8168,43888), 5 CTAs running
GPGPU-Sim uArch: core:  3, cta: 0 initialized @(8169,43888)
GPGPU-Sim uArch: Shader 7 finished CTA #3 (8226,43888), 5 CTAs running
GPGPU-Sim uArch: core:  7, cta: 3 initialized @(8227,43888)
GPGPU-Sim uArch: Shader 5 finished CTA #5 (8422,43888), 5 CTAs running
GPGPU-Sim uArch: core:  5, cta: 5 initialized @(8423,43888)
GPGPU-Sim uArch: Shader 2 finished CTA #0 (8536,43888), 5 CTAs running
GPGPU-Sim uArch: core:  2, cta: 0 initialized @(8537,43888)
GPGPU-Sim uArch: Shader 4 finished CTA #1 (8566,43888), 5 CTAs running
GPGPU-Sim uArch: core:  4, cta: 1 initialized @(8567,43888)
GPGPU-Sim uArch: Shader 0 finished CTA #0 (8580,43888), 5 CTAs running
GPGPU-Sim uArch: core:  0, cta: 0 initialized @(8581,43888)
GPGPU-Sim uArch: Shader 13 finished CTA #0 (8604,43888), 5 CTAs running
GPGPU-Sim uArch: core: 13, cta: 0 initialized @(8605,43888)
GPGPU-Sim uArch: Shader 9 finished CTA #5 (8648,43888), 5 CTAs running
GPGPU-Sim uArch: core:  9, cta: 5 initialized @(8649,43888)
GPGPU-Sim uArch: Shader 7 finished CTA #4 (8666,43888), 5 CTAs running
GPGPU-Sim uArch: core:  7, cta: 4 initialized @(8667,43888)
GPGPU-Sim uArch: Shader 12 finished CTA #0 (8800,43888), 5 CTAs running
GPGPU-Sim uArch: core: 12, cta: 0 initialized @(8801,43888)
GPGPU-Sim uArch: Shader 11 finished CTA #5 (8815,43888), 5 CTAs running
GPGPU-Sim uArch: core: 11, cta: 5 initialized @(8816,43888)
GPGPU-Sim uArch: Shader 4 finished CTA #2 (8964,43888), 5 CTAs running
GPGPU-Sim uArch: core:  4, cta: 2 initialized @(8965,43888)
GPGPU-Sim uArch: Shader 6 finished CTA #0 (8966,43888), 5 CTAs running
GPGPU-Sim uArch: core:  6, cta: 0 initialized @(8967,43888)
GPGPU-Sim uArch: Shader 3 finished CTA #1 (8992,43888), 5 CTAs running
GPGPU-Sim uArch: core:  3, cta: 1 initialized @(8993,43888)
GPGPU-Sim uArch: Shader 9 finished CTA #0 (9002,43888), 5 CTAs running
GPGPU-Sim uArch: core:  9, cta: 0 initialized @(9003,43888)
GPGPU-Sim uArch: Shader 11 finished CTA #0 (9171,43888), 5 CTAs running
GPGPU-Sim uArch: core: 11, cta: 0 initialized @(9172,43888)
GPGPU-Sim uArch: Shader 10 finished CTA #1 (9174,43888), 5 CTAs running
GPGPU-Sim uArch: core: 10, cta: 1 initialized @(9175,43888)
GPGPU-Sim uArch: Shader 6 finished CTA #1 (9175,43888), 5 CTAs running
GPGPU-Sim uArch: core:  6, cta: 1 initialized @(9176,43888)
GPGPU-Sim uArch: Shader 7 finished CTA #5 (9324,43888), 5 CTAs running
GPGPU-Sim uArch: core:  7, cta: 5 initialized @(9325,43888)
GPGPU-Sim uArch: Shader 9 finished CTA #1 (9359,43888), 5 CTAs running
GPGPU-Sim uArch: core:  9, cta: 1 initialized @(9360,43888)
GPGPU-Sim uArch: Shader 10 finished CTA #0 (9518,43888), 5 CTAs running
GPGPU-Sim uArch: core: 10, cta: 0 initialized @(9519,43888)
GPGPU-Sim uArch: Shader 5 finished CTA #0 (9539,43888), 5 CTAs running
GPGPU-Sim uArch: core:  5, cta: 0 initialized @(9540,43888)
GPGPU-Sim uArch: Shader 1 finished CTA #1 (9549,43888), 5 CTAs running
GPGPU-Sim uArch: core:  1, cta: 1 initialized @(9550,43888)
GPGPU-Sim uArch: Shader 13 finished CTA #1 (9575,43888), 5 CTAs running
GPGPU-Sim uArch: core: 13, cta: 1 initialized @(9576,43888)
GPGPU-Sim uArch: Shader 3 finished CTA #2 (9587,43888), 5 CTAs running
GPGPU-Sim uArch: core:  3, cta: 2 initialized @(9588,43888)
GPGPU-Sim uArch: Shader 6 finished CTA #2 (9636,43888), 5 CTAs running
GPGPU-Sim uArch: core:  6, cta: 2 initialized @(9637,43888)
GPGPU-Sim uArch: Shader 5 finished CTA #1 (9735,43888), 5 CTAs running
GPGPU-Sim uArch: core:  5, cta: 1 initialized @(9736,43888)
GPGPU-Sim uArch: Shader 8 finished CTA #5 (9748,43888), 5 CTAs running
GPGPU-Sim uArch: core:  8, cta: 5 initialized @(9749,43888)
GPGPU-Sim uArch: Shader 2 finished CTA #1 (9774,43888), 5 CTAs running
GPGPU-Sim uArch: core:  2, cta: 1 initialized @(9775,43888)
GPGPU-Sim uArch: Shader 3 finished CTA #3 (9805,43888), 5 CTAs running
GPGPU-Sim uArch: core:  3, cta: 3 initialized @(9806,43888)
GPGPU-Sim uArch: Shader 13 finished CTA #2 (9844,43888), 5 CTAs running
GPGPU-Sim uArch: core: 13, cta: 2 initialized @(9845,43888)
GPGPU-Sim uArch: Shader 4 finished CTA #3 (9902,43888), 5 CTAs running
GPGPU-Sim uArch: core:  4, cta: 3 initialized @(9903,43888)
GPGPU-Sim uArch: Shader 0 finished CTA #1 (9918,43888), 5 CTAs running
GPGPU-Sim uArch: core:  0, cta: 1 initialized @(9919,43888)
GPGPU-Sim uArch: Shader 6 finished CTA #4 (9995,43888), 5 CTAs running
GPGPU-Sim uArch: core:  6, cta: 4 initialized @(9996,43888)
GPGPU-Sim uArch: Shader 10 finished CTA #2 (10009,43888), 5 CTAs running
GPGPU-Sim uArch: core: 10, cta: 2 initialized @(10010,43888)
GPGPU-Sim uArch: Shader 1 finished CTA #2 (10078,43888), 5 CTAs running
GPGPU-Sim uArch: core:  1, cta: 2 initialized @(10079,43888)
GPGPU-Sim uArch: Shader 8 finished CTA #0 (10087,43888), 5 CTAs running
GPGPU-Sim uArch: core:  8, cta: 0 initialized @(10088,43888)
GPGPU-Sim uArch: Shader 7 finished CTA #0 (10117,43888), 5 CTAs running
GPGPU-Sim uArch: core:  7, cta: 0 initialized @(10118,43888)
GPGPU-Sim uArch: Shader 12 finished CTA #2 (10128,43888), 5 CTAs running
GPGPU-Sim uArch: core: 12, cta: 2 initialized @(10129,43888)
GPGPU-Sim uArch: Shader 12 finished CTA #1 (10224,43888), 5 CTAs running
GPGPU-Sim uArch: core: 12, cta: 1 initialized @(10225,43888)
GPGPU-Sim uArch: Shader 4 finished CTA #4 (10303,43888), 5 CTAs running
GPGPU-Sim uArch: core:  4, cta: 4 initialized @(10304,43888)
GPGPU-Sim uArch: Shader 1 finished CTA #3 (10335,43888), 5 CTAs running
GPGPU-Sim uArch: core:  1, cta: 3 initialized @(10336,43888)
GPGPU-Sim uArch: Shader 10 finished CTA #3 (10417,43888), 5 CTAs running
GPGPU-Sim uArch: core: 10, cta: 3 initialized @(10418,43888)
[...]
L2_cache_bank[3]: Access = 7651, Miss = 174, Miss_rate = 0.023, Pending_hits = 39, Reservation_fails = 365
L2_cache_bank[4]: Access = 7866, Miss = 176, Miss_rate = 0.022, Pending_hits = 47, Reservation_fails = 273
L2_cache_bank[5]: Access = 6171, Miss = 176, Miss_rate = 0.029, Pending_hits = 31, Reservation_fails = 287
L2_cache_bank[6]: Access = 7636, Miss = 176, Miss_rate = 0.023, Pending_hits = 37, Reservation_fails = 182
L2_cache_bank[7]: Access = 7317, Miss = 176, Miss_rate = 0.024, Pending_hits = 58, Reservation_fails = 165
L2_cache_bank[8]: Access = 6117, Miss = 176, Miss_rate = 0.029, Pending_hits = 29, Reservation_fails = 270
L2_cache_bank[9]: Access = 7737, Miss = 176, Miss_rate = 0.023, Pending_hits = 47, Reservation_fails = 176
L2_cache_bank[10]: Access = 7259, Miss = 176, Miss_rate = 0.024, Pending_hits = 58, Reservation_fails = 267
L2_cache_bank[11]: Access = 7503, Miss = 176, Miss_rate = 0.023, Pending_hits = 37, Reservation_fails = 188
L2_total_cache_accesses = 86460
L2_total_cache_misses = 2108
L2_total_cache_miss_rate = 0.0244
L2_total_cache_pending_hits = 526
L2_total_cache_reservation_fails = 3157
L2_total_cache_breakdown:
	L2_cache_stats_breakdown[GLOBAL_ACC_R][HIT] = 55441
	L2_cache_stats_breakdown[GLOBAL_ACC_R][HIT_RESERVED] = 416
	L2_cache_stats_breakdown[GLOBAL_ACC_R][MISS] = 2048
	L2_cache_stats_breakdown[GLOBAL_ACC_W][HIT] = 23330
	L2_cache_stats_breakdown[INST_ACC_R][HIT] = 5055
	L2_cache_stats_breakdown[INST_ACC_R][HIT_RESERVED] = 110
	L2_cache_stats_breakdown[INST_ACC_R][MISS] = 60
	L2_cache_stats_breakdown[INST_ACC_R][RESERVATION_FAIL] = 3157
L2_cache_data_port_util = 0.045
L2_cache_fill_port_util = 0.001

icnt_total_pkts_mem_to_simt=338980
icnt_total_pkts_simt_to_mem=133120
LD_mem_lat_dist  0 0 0 0 0 0 0 0 0 0 0 0 0 0 0 0 0 0 0 0 0 0 0 0 0 0 0
ST_mem_lat_dist  0 0 0 0 0 0 0 0 0 0 0 0 0 0 0 0 0 0 0 0 0 0 0 0 0 0 0
----------------------------Interconnect-DETAILS--------------------------------
Class 0:
Packet latency average = 26.4367
	minimum = 6
	maximum = 118
Network latency average = 19.649
	minimum = 6
	maximum = 104
Slowest packet = 171327
Flit latency average = 16.1883
	minimum = 6
	maximum = 104
Slowest flit = 467415
Fragmentation average = 0.0742857
	minimum = 0
	maximum = 91
Injected packet rate average = 0.0359454
	minimum = 0 (at node 14)
	maximum = 0.12016 (at node 17)
Accepted packet rate average = 0.0359454
	minimum = 0 (at node 14)
	maximum = 0.12016 (at node 17)
Injected flit rate average = 0.0990723
	minimum = 0 (at node 14)
	maximum = 0.451268 (at node 17)
Accepted flit rate average= 0.0990723
	minimum = 0 (at node 14)
	maximum = 0.227859 (at node 7)
Injected packet length average = 2.75619
Accepted packet length average = 2.75619
Total in-flight flits = 0 (0 measured)
====== Overall Traffic Statistics ======
====== Traffic class 0 ======
Packet latency average = 15.9659 (36 samples)
	minimum = 6 (36 samples)
	maximum = 127.639 (36 samples)
Network latency average = 13.1135 (36 samples)
	minimum = 6 (36 samples)
	maximum = 112.472 (36 samples)
Flit latency average = 10.1257 (36 samples)
	minimum = 6 (36 samples)
	maximum = 110.278 (36 samples)
Fragmentation average = 0.0268177 (36 samples)
	minimum = 0 (36 samples)
	maximum = 57.6667 (36 samples)
Injected packet rate average = 0.0202458 (36 samples)
	minimum = 0.00659658 (36 samples)
	maximum = 0.039109 (36 samples)
Accepted packet rate average = 0.0202458 (36 samples)
	minimum = 0.00659658 (36 samples)
	maximum = 0.039109 (36 samples)
Injected flit rate average = 0.0553388 (36 samples)
	minimum = 0.0103794 (36 samples)
	maximum = 0.162465 (36 samples)
Accepted flit rate average = 0.0553388 (36 samples)
	minimum = 0.0113976 (36 samples)
	maximum = 0.0951798 (36 samples)
Injected packet size average = 2.73335 (36 samples)
Accepted packet size average = 2.73335 (36 samples)
Hops average = 1 (36 samples)
----------------------------END-of-Interconnect-DETAILS-------------------------


gpgpu_simulation_time = 0 days, 0 hrs, 1 min, 11 sec (71 sec)
gpgpu_simulation_rate = 481835 (inst/sec)
gpgpu_simulation_rate = 7543 (cycle/sec)

GPGPU-Sim PTX: cudaLaunch for 0x0x401fa0 (mode=performance simulation) on stream 0
GPGPU-Sim PTX: pushing kernel '_Z12lud_diagonalPfii' to stream 0, gridDim= (1,1,1) blockDim = (16,1,1) 
kernel '_Z12lud_diagonalPfii' transfer to GPU hardware scheduler
GPGPU-Sim uArch: Shader 9 bind to kernel 37 '_Z12lud_diagonalPfii'
GPGPU-Sim uArch: CTA/core = 8, limited by: cta_limit
GPGPU-Sim uArch: core:  9, cta: 0 initialized @(1,535569)
GPGPU-Sim uArch: Shader 9 finished CTA #0 (12701,535569), 0 CTAs running
GPGPU-Sim uArch: Shader 9 empty (release kernel 37 '_Z12lud_diagonalPfii').
GPGPU-Sim uArch: GPU detected kernel '_Z12lud_diagonalPfii' finished on shader 9.
kernel_name = _Z12lud_diagonalPfii 
kernel_launch_uid = 37 
gpu_sim_cycle = 12702
gpu_sim_insn = 19237
gpu_ipc =       1.5145
gpu_tot_sim_cycle = 548271
gpu_tot_sim_insn = 34229569
gpu_tot_ipc =      62.4318
gpu_tot_issued_cta = 0
gpu_stall_dramfull = 114209
gpu_stall_icnt2sh    = 304699
gpu_total_sim_rate=475410

========= Core cache stats =========
L1I_cache:
	L1I_total_cache_accesses = 703687
	L1I_total_cache_misses = 16179
	L1I_total_cache_miss_rate = 0.0230
	L1I_total_cache_pending_hits = 0
	L1I_total_cache_reservation_fails = 14293
L1D_cache:
	L1D_cache_core[0]: Access = 6279, Miss = 4256, Miss_rate = 0.678, Pending_hits = 75, Reservation_fails = 39295
	L1D_cache_core[1]: Access = 6308, Miss = 4257, Miss_rate = 0.675, Pending_hits = 82, Reservation_fails = 39354
	L1D_cache_core[2]: Access = 6227, Miss = 4284, Miss_rate = 0.688, Pending_hits = 51, Reservation_fails = 41280
	L1D_cache_core[3]: Access = 6422, Miss = 4410, Miss_rate = 0.687, Pending_hits = 59, Reservation_fails = 38263
	L1D_cache_core[4]: Access = 6694, Miss = 4440, Miss_rate = 0.663, Pending_hits = 140, Reservation_fails = 35961
	L1D_cache_core[5]: Access = 6088, Miss = 4215, Miss_rate = 0.692, Pending_hits = 83, Reservation_fails = 39906
	L1D_cache_core[6]: Access = 6520, Miss = 4353, Miss_rate = 0.668, Pending_hits = 107, Reservation_fails = 37963
	L1D_cache_core[7]: Access = 6121, Miss = 4205, Miss_rate = 0.687, Pending_hits = 67, Reservation_fails = 40093
	L1D_cache_core[8]: Access = 6088, Miss = 4218, Miss_rate = 0.693, Pending_hits = 43, Reservation_fails = 40657
	L1D_cache_core[9]: Access = 6423, Miss = 4356, Miss_rate = 0.678, Pending_hits = 82, Reservation_fails = 39208
	L1D_cache_core[10]: Access = 6185, Miss = 4189, Miss_rate = 0.677, Pending_hits = 103, Reservation_fails = 38993
	L1D_cache_core[11]: Access = 6071, Miss = 4154, Miss_rate = 0.684, Pending_hits = 67, Reservation_fails = 40190
	L1D_cache_core[12]: Access = 6152, Miss = 4216, Miss_rate = 0.685, Pending_hits = 65, Reservation_fails = 38802
	L1D_cache_core[13]: Access = 6295, Miss = 4288, Miss_rate = 0.681, Pending_hits = 61, Reservation_fails = 37902
	L1D_total_cache_accesses = 87873
	L1D_total_cache_misses = 59841
	L1D_total_cache_miss_rate = 0.6810
	L1D_total_cache_pending_hits = 1085
	L1D_total_cache_reservation_fails = 547867
	L1D_cache_data_port_util = 0.007
	L1D_cache_fill_port_util = 0.014
L1C_cache:
	L1C_total_cache_accesses = 0
	L1C_total_cache_misses = 0
	L1C_total_cache_pending_hits = 0
	L1C_total_cache_reservation_fails = 0
L1T_cache:
	L1T_total_cache_accesses = 0
	L1T_total_cache_misses = 0
	L1T_total_cache_pending_hits = 0
	L1T_total_cache_reservation_fails = 0

Total_core_cache_stats:
	Total_core_cache_stats_breakdown[GLOBAL_ACC_R][HIT] = 5522
	Total_core_cache_stats_breakdown[GLOBAL_ACC_R][HIT_RESERVED] = 1085
	Total_core_cache_stats_breakdown[GLOBAL_ACC_R][MISS] = 57921
	Total_core_cache_stats_breakdown[GLOBAL_ACC_R][RESERVATION_FAIL] = 498038
	Total_core_cache_stats_breakdown[GLOBAL_ACC_W][HIT] = 21425
	Total_core_cache_stats_breakdown[GLOBAL_ACC_W][MISS] = 1920
	Total_core_cache_stats_breakdown[GLOBAL_ACC_W][RESERVATION_FAIL] = 49829
	Total_core_cache_stats_breakdown[INST_ACC_R][HIT] = 687508
	Total_core_cache_stats_breakdown[INST_ACC_R][MISS] = 16179
	Total_core_cache_stats_breakdown[INST_ACC_R][RESERVATION_FAIL] = 14293
Shader 0 warp_id issue ditsribution:
warp_id:
0, 1, 2, 3, 4, 5, 6, 7, 8, 9, 10, 11, 12, 13, 14, 15, 16, 17, 18, 19, 20, 21, 22, 23, 24, 25, 26, 27, 28, 29, 30, 31, 32, 33, 34, 35, 36, 37, 38, 39, 40, 41, 42, 43, 44, 45, 46, 47, 
distro:
35052, 1653, 1653, 1653, 1653, 1653, 1653, 1653, 1653, 1653, 1653, 1653, 1653, 1653, 1653, 1653, 1305, 1305, 1305, 1305, 1305, 1305, 1305, 1305, 1218, 1218, 1218, 1218, 1218, 1218, 1218, 1218, 957, 957, 957, 957, 957, 957, 957, 957, 783, 783, 783, 783, 783, 783, 783, 783, 
gpgpu_n_tot_thrd_icount = 41929376
gpgpu_n_tot_w_icount = 1310293
gpgpu_n_stall_shd_mem = 810707
gpgpu_n_mem_read_local = 0
gpgpu_n_mem_write_local = 0
gpgpu_n_mem_read_global = 57921
gpgpu_n_mem_write_global = 23345
gpgpu_n_mem_texture = 0
gpgpu_n_mem_const = 0
gpgpu_n_load_insn  = 1032448
gpgpu_n_store_insn = 373520
gpgpu_n_shmem_insn = 7468144
gpgpu_n_tex_insn = 0
gpgpu_n_const_mem_insn = 0
gpgpu_n_param_mem_insn = 0
gpgpu_n_shmem_bkconflict = 0
gpgpu_n_cache_bkconflict = 0
gpgpu_n_intrawarp_mshr_merge = 0
gpgpu_n_cmem_portconflict = 0
gpgpu_stall_shd_mem[c_mem][bk_conf] = 0
gpgpu_stall_shd_mem[c_mem][mshr_rc] = 0
gpgpu_stall_shd_mem[c_mem][icnt_rc] = 0
gpgpu_stall_shd_mem[c_mem][data_port_stall] = 0
gpgpu_stall_shd_mem[t_mem][mshr_rc] = 0
gpgpu_stall_shd_mem[t_mem][icnt_rc] = 0
gpgpu_stall_shd_mem[t_mem][data_port_stall] = 0
gpgpu_stall_shd_mem[s_mem][bk_conf] = 223608
gpgpu_stall_shd_mem[gl_mem][bk_conf] = 0
gpgpu_stall_shd_mem[gl_mem][coal_stall] = 587099
gpgpu_stall_shd_mem[gl_mem][data_port_stall] = 0
gpgpu_stall_shd_mem[g_mem_ld][mshr_rc] = 0
gpgpu_stall_shd_mem[g_mem_ld][icnt_rc] = 0
gpgpu_stall_shd_mem[g_mem_ld][wb_icnt_rc] = 0
gpgpu_stall_shd_mem[g_mem_ld][wb_rsrv_fail] = 0
gpgpu_stall_shd_mem[g_mem_st][mshr_rc] = 0
gpgpu_stall_shd_mem[g_mem_st][icnt_rc] = 0
gpgpu_stall_shd_mem[g_mem_st][wb_icnt_rc] = 0
gpgpu_stall_shd_mem[g_mem_st][wb_rsrv_fail] = 0
gpgpu_stall_shd_mem[l_mem_ld][mshr_rc] = 0
gpgpu_stall_shd_mem[l_mem_ld][icnt_rc] = 0
gpgpu_stall_shd_mem[l_mem_ld][wb_icnt_rc] = 0
gpgpu_stall_shd_mem[l_mem_ld][wb_rsrv_fail] = 0
gpgpu_stall_shd_mem[l_mem_st][mshr_rc] = 0
gpgpu_stall_shd_mem[l_mem_st][icnt_rc] = 0
gpgpu_stall_shd_mem[l_mem_ld][wb_icnt_rc] = 0
gpgpu_stall_shd_mem[l_mem_ld][wb_rsrv_fail] = 0
gpu_reg_bank_conflict_stalls = 0
Warp Occupancy Distribution:
Stall:1012077	W0_Idle:4098083	W0_Scoreboard:1718039	W1:3276	W2:3081	W3:2886	W4:2691	W5:2496	W6:2301	W7:2106	W8:1911	W9:1716	W10:1521	W11:1326	W12:1131	W13:936	W14:741	W15:455	W16:426941	W17:0	W18:0	W19:0	W20:0	W21:0	W22:0	W23:0	W24:0	W25:0	W26:0	W27:0	W28:0	W29:0	W30:0	W31:0	W32:854778
traffic_breakdown_coretomem[GLOBAL_ACC_R] = 463368 {8:57921,}
traffic_breakdown_coretomem[GLOBAL_ACC_W] = 1680840 {72:23345,}
traffic_breakdown_coretomem[INST_ACC_R] = 41928 {8:5241,}
traffic_breakdown_memtocore[GLOBAL_ACC_R] = 7877256 {136:57921,}
traffic_breakdown_memtocore[GLOBAL_ACC_W] = 186760 {8:23345,}
traffic_breakdown_memtocore[INST_ACC_R] = 712776 {136:5241,}
Memory Partition 0: 
Cache L2_bank_000:
MSHR contents

Cache L2_bank_001:
MSHR contents

In Dram Latency Queue (total = 0): 
DRAM[0]: 16 bks, busW=4 BL=8 CL=12, tRRD=2 tCCD=6, tRCD=12 tRAS=28 tRP=12 tRC=40
n_cmd=715104 n_nop=714390 n_act=14 n_pre=0 n_req=350 n_rd=700 n_write=0 bw_util=0.001958
n_activity=4151 dram_eff=0.3373
bk0: 12a 715065i bk1: 8a 715072i bk2: 0a 715100i bk3: 0a 715101i bk4: 20a 715054i bk5: 20a 715051i bk6: 64a 714926i bk7: 64a 714925i bk8: 64a 714928i bk9: 64a 714946i bk10: 64a 714937i bk11: 64a 714941i bk12: 64a 714906i bk13: 64a 714949i bk14: 64a 714858i bk15: 64a 714939i 
dram_util_bins: 0 0 0 0 0 0 0 0 0 0
dram_eff_bins: 0 0 0 0 0 0 0 0 0 0
mrqq: max=3 avg=0.000276883
Memory Partition 1: 
Cache L2_bank_002:
MSHR contents

Cache L2_bank_003:
MSHR contents

In Dram Latency Queue (total = 0): 
DRAM[1]: 16 bks, busW=4 BL=8 CL=12, tRRD=2 tCCD=6, tRCD=12 tRAS=28 tRP=12 tRC=40
n_cmd=715104 n_nop=714390 n_act=14 n_pre=0 n_req=350 n_rd=700 n_write=0 bw_util=0.001958
n_activity=4309 dram_eff=0.3249
bk0: 12a 715065i bk1: 8a 715072i bk2: 0a 715100i bk3: 0a 715100i bk4: 20a 715046i bk5: 20a 715046i bk6: 64a 714936i bk7: 64a 714893i bk8: 64a 714963i bk9: 64a 714949i bk10: 64a 714963i bk11: 64a 714955i bk12: 64a 714958i bk13: 64a 714941i bk14: 64a 714955i bk15: 64a 714932i 
dram_util_bins: 0 0 0 0 0 0 0 0 0 0
dram_eff_bins: 0 0 0 0 0 0 0 0 0 0
mrqq: max=4 avg=0.000241923
Memory Partition 2: 
Cache L2_bank_004:
MSHR contents

Cache L2_bank_005:
MSHR contents

In Dram Latency Queue (total = 0): 
DRAM[2]: 16 bks, busW=4 BL=8 CL=12, tRRD=2 tCCD=6, tRCD=12 tRAS=28 tRP=12 tRC=40
n_cmd=715104 n_nop=714386 n_act=14 n_pre=0 n_req=352 n_rd=704 n_write=0 bw_util=0.001969
n_activity=4167 dram_eff=0.3379
bk0: 12a 715065i bk1: 8a 715073i bk2: 0a 715102i bk3: 0a 715106i bk4: 20a 715052i bk5: 24a 715043i bk6: 64a 714937i bk7: 64a 714933i bk8: 64a 714957i bk9: 64a 714916i bk10: 64a 714944i bk11: 64a 714904i bk12: 64a 714955i bk13: 64a 714909i bk14: 64a 714954i bk15: 64a 714913i 
dram_util_bins: 0 0 0 0 0 0 0 0 0 0
dram_eff_bins: 0 0 0 0 0 0 0 0 0 0
mrqq: max=3 avg=0.00031464
Memory Partition 3: 
Cache L2_bank_006:
MSHR contents

Cache L2_bank_007:
MSHR contents

In Dram Latency Queue (total = 0): 
DRAM[3]: 16 bks, busW=4 BL=8 CL=12, tRRD=2 tCCD=6, tRCD=12 tRAS=28 tRP=12 tRC=40
n_cmd=715104 n_nop=714386 n_act=14 n_pre=0 n_req=352 n_rd=704 n_write=0 bw_util=0.001969
n_activity=4363 dram_eff=0.3227
bk0: 12a 715064i bk1: 8a 715072i bk2: 0a 715099i bk3: 0a 715105i bk4: 20a 715053i bk5: 24a 715030i bk6: 64a 714943i bk7: 64a 714928i bk8: 64a 714958i bk9: 64a 714946i bk10: 64a 714951i bk11: 64a 714944i bk12: 64a 714948i bk13: 64a 714940i bk14: 64a 714956i bk15: 64a 714942i 
dram_util_bins: 0 0 0 0 0 0 0 0 0 0
dram_eff_bins: 0 0 0 0 0 0 0 0 0 0
mrqq: max=5 avg=0.000378966
Memory Partition 4: 
Cache L2_bank_008:
MSHR contents

Cache L2_bank_009:
MSHR contents

In Dram Latency Queue (total = 0): 
DRAM[4]: 16 bks, busW=4 BL=8 CL=12, tRRD=2 tCCD=6, tRCD=12 tRAS=28 tRP=12 tRC=40
n_cmd=715104 n_nop=714386 n_act=14 n_pre=0 n_req=352 n_rd=704 n_write=0 bw_util=0.001969
n_activity=4115 dram_eff=0.3422
bk0: 12a 715065i bk1: 8a 715072i bk2: 0a 715100i bk3: 0a 715101i bk4: 20a 715053i bk5: 24a 715043i bk6: 64a 714937i bk7: 64a 714938i bk8: 64a 714942i bk9: 64a 714915i bk10: 64a 714939i bk11: 64a 714945i bk12: 64a 714924i bk13: 64a 714952i bk14: 64a 714879i bk15: 64a 714947i 
dram_util_bins: 0 0 0 0 0 0 0 0 0 0
dram_eff_bins: 0 0 0 0 0 0 0 0 0 0
mrqq: max=2 avg=0.000276883
Memory Partition 5: 
Cache L2_bank_010:
MSHR contents

Cache L2_bank_011:
MSHR contents

In Dram Latency Queue (total = 0): 
DRAM[5]: 16 bks, busW=4 BL=8 CL=12, tRRD=2 tCCD=6, tRCD=12 tRAS=28 tRP=12 tRC=40
n_cmd=715104 n_nop=714386 n_act=14 n_pre=0 n_req=352 n_rd=704 n_write=0 bw_util=0.001969
n_activity=4379 dram_eff=0.3215
bk0: 12a 715065i bk1: 8a 715072i bk2: 0a 715100i bk3: 0a 715103i bk4: 20a 715051i bk5: 24a 715039i bk6: 64a 714952i bk7: 64a 714921i bk8: 64a 714956i bk9: 64a 714938i bk10: 64a 714958i bk11: 64a 714943i bk12: 64a 714953i bk13: 64a 714926i bk14: 64a 714950i bk15: 64a 714935i 
dram_util_bins: 0 0 0 0 0 0 0 0 0 0
dram_eff_bins: 0 0 0 0 0 0 0 0 0 0
mrqq: max=4 avg=0.000269891

========= L2 cache stats =========
L2_cache_bank[0]: Access = 6118, Miss = 176, Miss_rate = 0.029, Pending_hits = 31, Reservation_fails = 376
L2_cache_bank[1]: Access = 7851, Miss = 174, Miss_rate = 0.022, Pending_hits = 46, Reservation_fails = 273
L2_cache_bank[2]: Access = 7238, Miss = 176, Miss_rate = 0.024, Pending_hits = 66, Reservation_fails = 335
L2_cache_bank[3]: Access = 7661, Miss = 174, Miss_rate = 0.023, Pending_hits = 39, Reservation_fails = 365
L2_cache_bank[4]: Access = 7868, Miss = 176, Miss_rate = 0.022, Pending_hits = 47, Reservation_fails = 273
L2_cache_bank[5]: Access = 6171, Miss = 176, Miss_rate = 0.029, Pending_hits = 31, Reservation_fails = 287
L2_cache_bank[6]: Access = 7648, Miss = 176, Miss_rate = 0.023, Pending_hits = 37, Reservation_fails = 182
L2_cache_bank[7]: Access = 7317, Miss = 176, Miss_rate = 0.024, Pending_hits = 58, Reservation_fails = 165
L2_cache_bank[8]: Access = 6119, Miss = 176, Miss_rate = 0.029, Pending_hits = 29, Reservation_fails = 270
L2_cache_bank[9]: Access = 7739, Miss = 176, Miss_rate = 0.023, Pending_hits = 47, Reservation_fails = 176
L2_cache_bank[10]: Access = 7261, Miss = 176, Miss_rate = 0.024, Pending_hits = 58, Reservation_fails = 267
L2_cache_bank[11]: Access = 7516, Miss = 176, Miss_rate = 0.023, Pending_hits = 37, Reservation_fails = 188
L2_total_cache_accesses = 86507
L2_total_cache_misses = 2108
L2_total_cache_miss_rate = 0.0244
L2_total_cache_pending_hits = 526
L2_total_cache_reservation_fails = 3157
L2_total_cache_breakdown:
	L2_cache_stats_breakdown[GLOBAL_ACC_R][HIT] = 55457
	L2_cache_stats_breakdown[GLOBAL_ACC_R][HIT_RESERVED] = 416
	L2_cache_stats_breakdown[GLOBAL_ACC_R][MISS] = 2048
	L2_cache_stats_breakdown[GLOBAL_ACC_W][HIT] = 23345
	L2_cache_stats_breakdown[INST_ACC_R][HIT] = 5071
	L2_cache_stats_breakdown[INST_ACC_R][HIT_RESERVED] = 110
	L2_cache_stats_breakdown[INST_ACC_R][MISS] = 60
	L2_cache_stats_breakdown[INST_ACC_R][RESERVATION_FAIL] = 3157
L2_cache_data_port_util = 0.044
L2_cache_fill_port_util = 0.001

icnt_total_pkts_mem_to_simt=339155
icnt_total_pkts_simt_to_mem=133197
LD_mem_lat_dist  0 0 0 0 0 0 0 0 0 0 0 0 0 0 0 0 0 0 0 0 0 0 0 0 0 0 0
ST_mem_lat_dist  0 0 0 0 0 0 0 0 0 0 0 0 0 0 0 0 0 0 0 0 0 0 0 0 0 0 0
----------------------------Interconnect-DETAILS--------------------------------
Class 0:
Packet latency average = 7.78723
	minimum = 6
	maximum = 12
Network latency average = 7.7766
	minimum = 6
	maximum = 12
Slowest packet = 172947
Flit latency average = 6.08333
	minimum = 6
	maximum = 8
Slowest flit = 472179
Fragmentation average = 0
	minimum = 0
	maximum = 0
Injected packet rate average = 0.000284631
	minimum = 0 (at node 0)
	maximum = 0.0037002 (at node 9)
Accepted packet rate average = 0.000284631
	minimum = 0 (at node 0)
	maximum = 0.0037002 (at node 9)
Injected flit rate average = 0.000763054
	minimum = 0 (at node 0)
	maximum = 0.00606204 (at node 9)
Accepted flit rate average= 0.000763054
	minimum = 0 (at node 0)
	maximum = 0.0137774 (at node 9)
Injected packet length average = 2.68085
Accepted packet length average = 2.68085
Total in-flight flits = 0 (0 measured)
====== Overall Traffic Statistics ======
====== Traffic class 0 ======
Packet latency average = 15.7448 (37 samples)
	minimum = 6 (37 samples)
	maximum = 124.514 (37 samples)
Network latency average = 12.9693 (37 samples)
	minimum = 6 (37 samples)
	maximum = 109.757 (37 samples)
Flit latency average = 10.0164 (37 samples)
	minimum = 6 (37 samples)
	maximum = 107.514 (37 samples)
Fragmentation average = 0.0260929 (37 samples)
	minimum = 0 (37 samples)
	maximum = 56.1081 (37 samples)
Injected packet rate average = 0.0197063 (37 samples)
	minimum = 0.00641829 (37 samples)
	maximum = 0.038152 (37 samples)
Accepted packet rate average = 0.0197063 (37 samples)
	minimum = 0.00641829 (37 samples)
	maximum = 0.038152 (37 samples)
Injected flit rate average = 0.0538638 (37 samples)
	minimum = 0.0100989 (37 samples)
	maximum = 0.158238 (37 samples)
Accepted flit rate average = 0.0538638 (37 samples)
	minimum = 0.0110895 (37 samples)
	maximum = 0.0929797 (37 samples)
Injected packet size average = 2.73333 (37 samples)
Accepted packet size average = 2.73333 (37 samples)
Hops average = 1 (37 samples)
----------------------------END-of-Interconnect-DETAILS-------------------------


gpgpu_simulation_time = 0 days, 0 hrs, 1 min, 12 sec (72 sec)
gpgpu_simulation_rate = 475410 (inst/sec)
gpgpu_simulation_rate = 7614 (cycle/sec)

GPGPU-Sim PTX: cudaLaunch for 0x0x401f20 (mode=performance simulation) on stream 0
GPGPU-Sim PTX: pushing kernel '_Z13lud_perimeterPfii' to stream 0, gridDim= (3,1,1) blockDim = (32,1,1) 
kernel '_Z13lud_perimeterPfii' transfer to GPU hardware scheduler
