

        *** GPGPU-Sim Simulator Version 3.2.2  [build 17315] ***


GPGPU-Sim PTX: simulation mode 0 (can change with PTX_SIM_MODE_FUNC environment variable:
               1=functional simulation only, 0=detailed performance simulator)
GPGPU-Sim: Configuration options:

-network_mode                           1 # Interconnection network mode
-inter_config_file   config_fermi_islip.icnt # Interconnection network config file
-gpgpu_ptx_use_cuobjdump                    1 # Use cuobjdump to extract ptx and sass from binaries
-gpgpu_experimental_lib_support                    0 # Try to extract code from cuda libraries [Broken because of unknown cudaGetExportTable]
-gpgpu_ptx_convert_to_ptxplus                    1 # Convert SASS (native ISA) to ptxplus and run ptxplus
-gpgpu_ptx_force_max_capability                   20 # Force maximum compute capability
-gpgpu_ptx_inst_debug_to_file                    0 # Dump executed instructions' debug information to file
-gpgpu_ptx_inst_debug_file       inst_debug.txt # Executed instructions' debug output file
-gpgpu_ptx_inst_debug_thread_uid                    1 # Thread UID for executed instructions' debug output
-gpgpu_simd_model                       1 # 1 = post-dominator
-gpgpu_shader_core_pipeline              1536:32 # shader core pipeline config, i.e., {<nthread>:<warpsize>}
-gpgpu_tex_cache:l1  4:128:24,L:R:m:N,F:128:4,128:2 # per-shader L1 texture cache  (READ-ONLY) config  {<nsets>:<bsize>:<assoc>,<rep>:<wr>:<alloc>:<wr_alloc>,<mshr>:<N>:<merge>,<mq>:<rf>}
-gpgpu_const_cache:l1 64:64:2,L:R:f:N,A:2:32,4 # per-shader L1 constant memory cache  (READ-ONLY) config  {<nsets>:<bsize>:<assoc>,<rep>:<wr>:<alloc>:<wr_alloc>,<mshr>:<N>:<merge>,<mq>} 
-gpgpu_cache:il1     4:128:4,L:R:f:N,A:2:32,4 # shader L1 instruction cache config  {<nsets>:<bsize>:<assoc>,<rep>:<wr>:<alloc>:<wr_alloc>,<mshr>:<N>:<merge>,<mq>} 
-gpgpu_cache:dl1     32:128:4,L:L:m:N,A:32:8,8 # per-shader L1 data cache config  {<nsets>:<bsize>:<assoc>,<rep>:<wr>:<alloc>:<wr_alloc>,<mshr>:<N>:<merge>,<mq> | none}
-gpgpu_cache:dl1PrefL1                 none # per-shader L1 data cache config  {<nsets>:<bsize>:<assoc>,<rep>:<wr>:<alloc>:<wr_alloc>,<mshr>:<N>:<merge>,<mq> | none}
-gpgpu_cache:dl1PreShared                 none # per-shader L1 data cache config  {<nsets>:<bsize>:<assoc>,<rep>:<wr>:<alloc>:<wr_alloc>,<mshr>:<N>:<merge>,<mq> | none}
-gmem_skip_L1D                          0 # global memory access skip L1D cache (implements -Xptxas -dlcm=cg, default=no skip)
-gpgpu_perfect_mem                      0 # enable perfect memory mode (no cache miss)
-n_regfile_gating_group                    4 # group of lanes that should be read/written together)
-gpgpu_clock_gated_reg_file                    0 # enable clock gated reg file for power calculations
-gpgpu_clock_gated_lanes                    0 # enable clock gated lanes for power calculations
-gpgpu_shader_registers                32768 # Number of registers per shader core. Limits number of concurrent CTAs. (default 8192)
-gpgpu_shader_cta                       8 # Maximum number of concurrent CTAs in shader (default 8)
-gpgpu_n_clusters                      14 # number of processing clusters
-gpgpu_n_cores_per_cluster                    1 # number of simd cores per cluster
-gpgpu_n_cluster_ejection_buffer_size                    8 # number of packets in ejection buffer
-gpgpu_n_ldst_response_buffer_size                    2 # number of response packets in ld/st unit ejection buffer
-gpgpu_shmem_size                   16384 # Size of shared memory per shader core (default 16kB)
-gpgpu_shmem_size                   16384 # Size of shared memory per shader core (default 16kB)
-gpgpu_shmem_size_PrefL1                16384 # Size of shared memory per shader core (default 16kB)
-gpgpu_shmem_size_PrefShared                16384 # Size of shared memory per shader core (default 16kB)
-gpgpu_shmem_num_banks                   32 # Number of banks in the shared memory in each shader core (default 16)
-gpgpu_shmem_limited_broadcast                    0 # Limit shared memory to do one broadcast per cycle (default on)
-gpgpu_shmem_warp_parts                    1 # Number of portions a warp is divided into for shared memory bank conflict check 
-gpgpu_warpdistro_shader                   -1 # Specify which shader core to collect the warp size distribution from
-gpgpu_warp_issue_shader                    0 # Specify which shader core to collect the warp issue distribution from
-gpgpu_local_mem_map                    1 # Mapping from local memory space address to simulated GPU physical address space (default = enabled)
-gpgpu_num_reg_banks                   16 # Number of register banks (default = 8)
-gpgpu_reg_bank_use_warp_id                    0 # Use warp ID in mapping registers to banks (default = off)
-gpgpu_operand_collector_num_units_sp                    6 # number of collector units (default = 4)
-gpgpu_operand_collector_num_units_sfu                    8 # number of collector units (default = 4)
-gpgpu_operand_collector_num_units_mem                    2 # number of collector units (default = 2)
-gpgpu_operand_collector_num_units_gen                    0 # number of collector units (default = 0)
-gpgpu_operand_collector_num_in_ports_sp                    2 # number of collector unit in ports (default = 1)
-gpgpu_operand_collector_num_in_ports_sfu                    1 # number of collector unit in ports (default = 1)
-gpgpu_operand_collector_num_in_ports_mem                    1 # number of collector unit in ports (default = 1)
-gpgpu_operand_collector_num_in_ports_gen                    0 # number of collector unit in ports (default = 0)
-gpgpu_operand_collector_num_out_ports_sp                    2 # number of collector unit in ports (default = 1)
-gpgpu_operand_collector_num_out_ports_sfu                    1 # number of collector unit in ports (default = 1)
-gpgpu_operand_collector_num_out_ports_mem                    1 # number of collector unit in ports (default = 1)
-gpgpu_operand_collector_num_out_ports_gen                    0 # number of collector unit in ports (default = 0)
-gpgpu_coalesce_arch                   13 # Coalescing arch (default = 13, anything else is off for now)
-gpgpu_num_sched_per_core                    2 # Number of warp schedulers per core
-gpgpu_max_insn_issue_per_warp                    1 # Max number of instructions that can be issued per warp in one cycle by scheduler
-gpgpu_simt_core_sim_order                    1 # Select the simulation order of cores in a cluster (0=Fix, 1=Round-Robin)
-gpgpu_pipeline_widths        2,1,1,2,1,1,2 # Pipeline widths ID_OC_SP,ID_OC_SFU,ID_OC_MEM,OC_EX_SP,OC_EX_SFU,OC_EX_MEM,EX_WB
-gpgpu_num_sp_units                     2 # Number of SP units (default=1)
-gpgpu_num_sfu_units                    1 # Number of SF units (default=1)
-gpgpu_num_mem_units                    1 # Number if ldst units (default=1) WARNING: not hooked up to anything
-gpgpu_scheduler                      lrr # Scheduler configuration: < lrr | gto | two_level_active > If two_level_active:<num_active_warps>:<inner_prioritization>:<outer_prioritization>For complete list of prioritization values see shader.h enum scheduler_prioritization_typeDefault: gto
-gpgpu_dram_scheduler                    1 # 0 = fifo, 1 = FR-FCFS (defaul)
-gpgpu_dram_partition_queues              8:8:8:8 # i2$:$2d:d2$:$2i
-l2_ideal                               0 # Use a ideal L2 cache that always hit
-gpgpu_cache:dl2     64:128:8,L:B:m:W,A:32:4,4:0,32 # unified banked L2 data cache config  {<nsets>:<bsize>:<assoc>,<rep>:<wr>:<alloc>:<wr_alloc>,<mshr>:<N>:<merge>,<mq>}
-gpgpu_cache:dl2_texture_only                    0 # L2 cache used for texture only
-gpgpu_n_mem                            6 # number of memory modules (e.g. memory controllers) in gpu
-gpgpu_n_sub_partition_per_mchannel                    2 # number of memory subpartition in each memory module
-gpgpu_n_mem_per_ctrlr                    2 # number of memory chips per memory controller
-gpgpu_memlatency_stat                    0 # track and display latency statistics 0x2 enables MC, 0x4 enables queue logs
-gpgpu_frfcfs_dram_sched_queue_size                   16 # 0 = unlimited (default); # entries per chip
-gpgpu_dram_return_queue_size                  114 # 0 = unlimited (default); # entries per chip
-gpgpu_dram_buswidth                    4 # default = 4 bytes (8 bytes per cycle at DDR)
-gpgpu_dram_burst_length                    8 # Burst length of each DRAM request (default = 4 data bus cycle)
-dram_data_command_freq_ratio                    4 # Frequency ratio between DRAM data bus and command bus (default = 2 times, i.e. DDR)
-gpgpu_dram_timing_opt nbk=16:CCD=2:RRD=6:RCD=12:RAS=28:RP=12:RC=40: CL=12:WL=4:CDLR=5:WR=12:nbkgrp=4:CCDL=3:RTPL=2 # DRAM timing parameters = {nbk:tCCD:tRRD:tRCD:tRAS:tRP:tRC:CL:WL:tCDLR:tWR:nbkgrp:tCCDL:tRTPL}
-rop_latency                          120 # ROP queue latency (default 85)
-dram_latency                         100 # DRAM latency (default 30)
-gpgpu_mem_addr_mapping dramid@8;00000000.00000000.00000000.00000000.0000RRRR.RRRRRRRR.BBBCCCCB.CCSSSSSS # mapping memory address to dram model {dramid@<start bit>;<memory address map>}
-gpgpu_mem_addr_test                    0 # run sweep test to check address mapping for aliased address
-gpgpu_mem_address_mask                    1 # 0 = old addressing mask, 1 = new addressing mask, 2 = new add. mask + flipped bank sel and chip sel bits
-gpuwattch_xml_file         gpuwattch.xml # GPUWattch XML file
-power_simulation_enabled                    0 # Turn on power simulator (1=On, 0=Off)
-power_per_cycle_dump                    0 # Dump detailed power output each cycle
-power_trace_enabled                    0 # produce a file for the power trace (1=On, 0=Off)
-power_trace_zlevel                     6 # Compression level of the power trace output log (0=no comp, 9=highest)
-steady_power_levels_enabled                    0 # produce a file for the steady power levels (1=On, 0=Off)
-steady_state_definition                  8:4 # allowed deviation:number of samples
-gpgpu_max_cycle                        0 # terminates gpu simulation early (0 = no limit)
-gpgpu_max_insn                         0 # terminates gpu simulation early (0 = no limit)
-gpgpu_max_cta                          0 # terminates gpu simulation early (0 = no limit)
-gpgpu_runtime_stat             5000000:0 # display runtime statistics such as dram utilization {<freq>:<flag>}
-liveness_message_freq                    1 # Minimum number of seconds between simulation liveness messages (0 = always print)
-gpgpu_flush_l1_cache                    0 # Flush L1 cache at the end of each kernel call
-gpgpu_flush_l2_cache                    0 # Flush L2 cache at the end of each kernel call
-gpgpu_deadlock_detect                    1 # Stop the simulation at deadlock (1=on (default), 0=off)
-gpgpu_ptx_instruction_classification                    0 # if enabled will classify ptx instruction types per kernel (Max 255 kernels now)
-gpgpu_ptx_sim_mode                     0 # Select between Performance (default) or Functional simulation (1)
-gpgpu_clock_domains 575.0:575.0:575.0:750.0 # Clock Domain Frequencies in MhZ {<Core Clock>:<ICNT Clock>:<L2 Clock>:<DRAM Clock>}
-gpgpu_max_concurrent_kernel                    8 # maximum kernels that can run concurrently on GPU
-gpgpu_cflog_interval                    0 # Interval between each snapshot in control flow logger
-visualizer_enabled                     0 # Turn on visualizer output (1=On, 0=Off)
-visualizer_outputfile                 NULL # Specifies the output log file for visualizer
-visualizer_zlevel                      6 # Compression level of the visualizer output log (0=no comp, 9=highest)
-trace_enabled                          0 # Turn on traces
-trace_components                    none # comma seperated list of traces to enable. Complete list found in trace_streams.tup. Default none
-trace_sampling_core                    0 # The core which is printed using CORE_DPRINTF. Default 0
-trace_sampling_memory_partition                   -1 # The memory partition which is printed using MEMPART_DPRINTF. Default -1 (i.e. all)
-enable_ptx_file_line_stats                    0 # Turn on PTX source line statistic profiling. (1 = On)
-ptx_line_stats_filename gpgpu_inst_stats.txt # Output file for PTX source line statistics.
-save_embedded_ptx                      0 # saves ptx files embedded in binary as <n>.ptx
-keep                                   0 # keep intermediate files created by GPGPU-Sim when interfacing with external programs
-gpgpu_ptx_save_converted_ptxplus                    1 # Saved converted ptxplus to a file
-ptx_opcode_latency_int         4,13,4,5,145 # Opcode latencies for integers <ADD,MAX,MUL,MAD,DIV>Default 1,1,19,25,145
-ptx_opcode_latency_fp          4,13,4,5,39 # Opcode latencies for single precision floating points <ADD,MAX,MUL,MAD,DIV>Default 1,1,1,1,30
-ptx_opcode_latency_dp         8,19,8,8,330 # Opcode latencies for double precision floating points <ADD,MAX,MUL,MAD,DIV>Default 8,8,8,8,335
-ptx_opcode_initiation_int            1,2,2,1,8 # Opcode initiation intervals for integers <ADD,MAX,MUL,MAD,DIV>Default 1,1,4,4,32
-ptx_opcode_initiation_fp            1,2,1,1,4 # Opcode initiation intervals for single precision floating points <ADD,MAX,MUL,MAD,DIV>Default 1,1,1,1,5
-ptx_opcode_initiation_dp         8,16,8,8,130 # Opcode initiation intervals for double precision floating points <ADD,MAX,MUL,MAD,DIV>Default 8,8,8,8,130
DRAM Timing Options:
nbk                                    16 # number of banks
CCD                                     2 # column to column delay
RRD                                     6 # minimal delay between activation of rows in different banks
RCD                                    12 # row to column delay
RAS                                    28 # time needed to activate row
RP                                     12 # time needed to precharge (deactivate) row
RC                                     40 # row cycle time
CDLR                                    5 # switching from write to read (changes tWTR)
WR                                     12 # last data-in to row precharge
CL                                     12 # CAS latency
WL                                      4 # Write latency
nbkgrp                                  4 # number of bank groups
CCDL                                    3 # column to column delay between accesses to different bank groups
RTPL                                    2 # read to precharge delay between accesses to different bank groups
Total number of memory sub partition = 12
addr_dec_mask[CHIP]  = 0000000000000000 	high:64 low:0
addr_dec_mask[BK]    = 000000000000e100 	high:16 low:8
addr_dec_mask[ROW]   = 000000000fff0000 	high:28 low:16
addr_dec_mask[COL]   = 0000000000001eff 	high:13 low:0
addr_dec_mask[BURST] = 000000000000003f 	high:6 low:0
sub_partition_id_mask = 0000000000000100
GPGPU-Sim uArch: clock freqs: 575000000.000000:575000000.000000:575000000.000000:750000000.000000
GPGPU-Sim uArch: clock periods: 0.00000000173913043478:0.00000000173913043478:0.00000000173913043478:0.00000000133333333333
*** Initializing Memory Statistics ***
GPGPU-Sim uArch: interconnect node map (shaderID+MemID to icntID)
GPGPU-Sim uArch: Memory nodes ID start from index: 14
GPGPU-Sim uArch:    0   1   2   3   4
GPGPU-Sim uArch:    5   6   7   8   9
GPGPU-Sim uArch:   10  11  12  13  14
GPGPU-Sim uArch:   15  16  17  18  19
GPGPU-Sim uArch:   20  21  22  23  24
GPGPU-Sim uArch:   25
GPGPU-Sim uArch: interconnect node reverse map (icntID to shaderID+MemID)
GPGPU-Sim uArch: Memory nodes start from ID: 14
GPGPU-Sim uArch:    0   1   2   3   4
GPGPU-Sim uArch:    5   6   7   8   9
GPGPU-Sim uArch:   10  11  12  13  14
GPGPU-Sim uArch:   15  16  17  18  19
GPGPU-Sim uArch:   20  21  22  23  24
GPGPU-Sim uArch:   25
7f0b29ae10830a8ac880e1c146a30d34  /home/vishwesh/Desktop/Register_Sharing_Pbm/rodinia_2.4/cuda/backprop/backprop
GPGPU-Sim uArch: performance model initialization complete.
GPGPU-Sim PTX: __cudaRegisterFatBinary, fat_cubin_handle = 1, filename=backprop_cuda.cu
self exe links to: /home/vishwesh/Desktop/Register_Sharing_Pbm/rodinia_2.4/cuda/backprop/backprop
Running md5sum using "md5sum /home/vishwesh/Desktop/Register_Sharing_Pbm/rodinia_2.4/cuda/backprop/backprop "
Running cuobjdump using "$CUDA_INSTALL_PATH/bin/cuobjdump -ptx -elf -sass /home/vishwesh/Desktop/Register_Sharing_Pbm/rodinia_2.4/cuda/backprop/backprop > _cuobjdump_complete_output_DCGqJa"
Parsing file _cuobjdump_complete_output_DCGqJa
######### cuobjdump parser ########
## Adding new section ELF
Adding arch: sm_10
Adding identifier: backprop_cuda.cu
## Adding new section PTX
Adding ptx filename: _cuobjdump_1.ptx
Adding arch: sm_10
Adding identifier: backprop_cuda.cu
Done parsing!!!
GPGPU-Sim: WARNING: Capability >= 20 are not supported in PTXPlus
	Setting forced_max_capability to 19
GPGPU-Sim PTX: __cudaRegisterFunction _Z24bpnn_adjust_weights_cudaPfiS_iS_S_ : hostFun 0x0x402120, fat_cubin_handle = 1
GPGPU-Sim PTX: converting EMBEDDED .ptx file to ptxplus 
RUNNING cuobjdump_to_ptxplus ...
Parsing .elf file _cuobjdump_1.elf
()



Finished parsing .elf file _cuobjdump_1.elf
Parsing .ptx file _cuobjdump_1.ptx
Finished parsing .ptx file _cuobjdump_1.ptx
Parsing .sass file _cuobjdump_1.sass
Finished parsing .sass file _cuobjdump_1.sass
DONE. 
GPGPU-Sim PTX: calling cuobjdump_to_ptxplus
commandline: $GPGPUSIM_ROOT/build/$GPGPUSIM_CONFIG/cuobjdump_to_ptxplus/cuobjdump_to_ptxplus _cuobjdump_1.ptx _cuobjdump_1.sass _cuobjdump_1.elf _ptxplus_96Ezjg
GPGPU-Sim PTX: DONE converting EMBEDDED .ptx file to ptxplus 
GPGPU-Sim PTX: allocating constant region for "constant1_Z22bpnn_layerforward_CUDAPfS_S_S_ii" from 0x100 to 0x10c (global memory space) 1
GPGPU-Sim PTX: allocating constant region for "constant1_Z24bpnn_adjust_weights_cudaPfiS_iS_S_" from 0x110 to 0x118 (global memory space) 2
GPGPU-Sim PTX: instruction assembly for function '_Z24bpnn_adjust_weights_cudaPfiS_iS_S_'...   done.
GPGPU-Sim PTX: finding reconvergence points for '_Z24bpnn_adjust_weights_cudaPfiS_iS_S_'...
GPGPU-Sim PTX: Warning detected predicated return/exit.
GPGPU-Sim PTX: Finding dominators for '_Z24bpnn_adjust_weights_cudaPfiS_iS_S_'...
GPGPU-Sim PTX: Finding immediate dominators for '_Z24bpnn_adjust_weights_cudaPfiS_iS_S_'...
GPGPU-Sim PTX: Finding postdominators for '_Z24bpnn_adjust_weights_cudaPfiS_iS_S_'...
GPGPU-Sim PTX: Finding immediate postdominators for '_Z24bpnn_adjust_weights_cudaPfiS_iS_S_'...
GPGPU-Sim PTX: pre-decoding instructions for '_Z24bpnn_adjust_weights_cudaPfiS_iS_S_'...
GPGPU-Sim PTX: reconvergence points for _Z24bpnn_adjust_weights_cudaPfiS_iS_S_...
GPGPU-Sim PTX: ... end of reconvergence points for _Z24bpnn_adjust_weights_cudaPfiS_iS_S_
GPGPU-Sim PTX: ... done pre-decoding instructions for '_Z24bpnn_adjust_weights_cudaPfiS_iS_S_'.
GPGPU-Sim PTX: PTX uses two scalar type intruction with literal operand.
GPGPU-Sim PTX: instruction assembly for function '_Z22bpnn_layerforward_CUDAPfS_S_S_ii'...   done.
GPGPU-Sim PTX: finding reconvergence points for '_Z22bpnn_layerforward_CUDAPfS_S_S_ii'...
GPGPU-Sim PTX: Warning detected predicated return/exit.
GPGPU-Sim PTX: Finding dominators for '_Z22bpnn_layerforward_CUDAPfS_S_S_ii'...
GPGPU-Sim PTX: Finding immediate dominators for '_Z22bpnn_layerforward_CUDAPfS_S_S_ii'...
GPGPU-Sim PTX: Finding postdominators for '_Z22bpnn_layerforward_CUDAPfS_S_S_ii'...
GPGPU-Sim PTX: Finding immediate postdominators for '_Z22bpnn_layerforward_CUDAPfS_S_S_ii'...
GPGPU-Sim PTX: pre-decoding instructions for '_Z22bpnn_layerforward_CUDAPfS_S_S_ii'...
GPGPU-Sim PTX: reconvergence points for _Z22bpnn_layerforward_CUDAPfS_S_S_ii...
GPGPU-Sim PTX:  1 (potential) branch divergence @  PC=0x290 (_1.ptx:144) @$p1.neu bra l0x00000078;
GPGPU-Sim PTX:    immediate post dominator      @  PC=0x2d8 (_1.ptx:153) l0x00000078: nop;
GPGPU-Sim PTX:  2 (potential) branch divergence @  PC=0x400 (_1.ptx:194) @$p1.ne bra l0x00000200;
GPGPU-Sim PTX:    immediate post dominator      @  PC=0x460 (_1.ptx:206) l0x00000200: nop;
GPGPU-Sim PTX:  3 (potential) branch divergence @  PC=0x488 (_1.ptx:211) @$p1.ne bra l0x00000160;
GPGPU-Sim PTX:    immediate post dominator      @  PC=0x490 (_1.ptx:212) add.u32 $r3, $r6, 0x00000008;
GPGPU-Sim PTX: ... end of reconvergence points for _Z22bpnn_layerforward_CUDAPfS_S_S_ii
GPGPU-Sim PTX: ... done pre-decoding instructions for '_Z22bpnn_layerforward_CUDAPfS_S_S_ii'.
GPGPU-Sim PTX: finished parsing EMBEDDED .ptx file _1.ptx
Adding _cuobjdump_1.ptx with cubin handle 1
GPGPU-Sim PTX: extracting embedded .ptx to temporary file "_ptx_xOaZUl"
Running: cat _ptx_xOaZUl | sed 's/.version 1.5/.version 1.4/' | sed 's/, texmode_independent//' | sed 's/\(\.extern \.const\[1\] .b8 \w\+\)\[\]/\1\[1\]/' | sed 's/const\[.\]/const\[0\]/g' > _ptx2_geopwr
GPGPU-Sim PTX: generating ptxinfo using "$CUDA_INSTALL_PATH/bin/ptxas --gpu-name=sm_20 -v _ptx2_geopwr --output-file  /dev/null 2> _ptx_xOaZUlinfo"
GPGPU-Sim PTX: Kernel '_Z22bpnn_layerforward_CUDAPfS_S_S_ii' : regs=11, lmem=0, smem=1088, cmem=72
GPGPU-Sim PTX: Kernel '_Z24bpnn_adjust_weights_cudaPfiS_iS_S_' : regs=22, lmem=0, smem=0, cmem=80
GPGPU-Sim PTX: removing ptxinfo using "rm -f _ptx_xOaZUl _ptx2_geopwr _ptx_xOaZUlinfo"
GPGPU-Sim PTX: loading globals with explicit initializers... 
GPGPU-Sim PTX: finished loading globals (0 bytes total).
GPGPU-Sim PTX: loading constants with explicit initializers...  done.
GPGPU-Sim PTX: __cudaRegisterFunction _Z22bpnn_layerforward_CUDAPfS_S_S_ii : hostFun 0x0x402210, fat_cubin_handle = 1
Random number generator seed: 7
Input layer size : 65536
Starting training kernel
Performing GPU computation

GPGPU-Sim PTX: cudaLaunch for 0x0x402210 (mode=performance simulation) on stream 0
GPGPU-Sim PTX: pushing kernel '_Z22bpnn_layerforward_CUDAPfS_S_S_ii' to stream 0, gridDim= (1,4096,1) blockDim = (16,16,1) 
kernel '_Z22bpnn_layerforward_CUDAPfS_S_S_ii' transfer to GPU hardware scheduler
GPGPU-Sim uArch: Shader 1 bind to kernel 1 '_Z22bpnn_layerforward_CUDAPfS_S_S_ii'
GPGPU-Sim uArch: CTA/core = 6, limited by: threads
GPGPU-Sim uArch: core:  1, cta: 0 initialized @(1,0)
GPGPU-Sim uArch: Shader 2 bind to kernel 1 '_Z22bpnn_layerforward_CUDAPfS_S_S_ii'
GPGPU-Sim uArch: core:  2, cta: 0 initialized @(1,0)
GPGPU-Sim uArch: Shader 3 bind to kernel 1 '_Z22bpnn_layerforward_CUDAPfS_S_S_ii'
GPGPU-Sim uArch: core:  3, cta: 0 initialized @(1,0)
GPGPU-Sim uArch: Shader 4 bind to kernel 1 '_Z22bpnn_layerforward_CUDAPfS_S_S_ii'
GPGPU-Sim uArch: core:  4, cta: 0 initialized @(1,0)
GPGPU-Sim uArch: Shader 5 bind to kernel 1 '_Z22bpnn_layerforward_CUDAPfS_S_S_ii'
GPGPU-Sim uArch: core:  5, cta: 0 initialized @(1,0)
GPGPU-Sim uArch: Shader 6 bind to kernel 1 '_Z22bpnn_layerforward_CUDAPfS_S_S_ii'
GPGPU-Sim uArch: core:  6, cta: 0 initialized @(1,0)
GPGPU-Sim uArch: Shader 7 bind to kernel 1 '_Z22bpnn_layerforward_CUDAPfS_S_S_ii'
GPGPU-Sim uArch: core:  7, cta: 0 initialized @(1,0)
GPGPU-Sim uArch: Shader 8 bind to kernel 1 '_Z22bpnn_layerforward_CUDAPfS_S_S_ii'
GPGPU-Sim uArch: core:  8, cta: 0 initialized @(1,0)
GPGPU-Sim uArch: Shader 9 bind to kernel 1 '_Z22bpnn_layerforward_CUDAPfS_S_S_ii'
GPGPU-Sim uArch: core:  9, cta: 0 initialized @(1,0)
GPGPU-Sim uArch: Shader 10 bind to kernel 1 '_Z22bpnn_layerforward_CUDAPfS_S_S_ii'
GPGPU-Sim uArch: core: 10, cta: 0 initialized @(1,0)
GPGPU-Sim uArch: Shader 11 bind to kernel 1 '_Z22bpnn_layerforward_CUDAPfS_S_S_ii'
GPGPU-Sim uArch: core: 11, cta: 0 initialized @(1,0)
GPGPU-Sim uArch: Shader 12 bind to kernel 1 '_Z22bpnn_layerforward_CUDAPfS_S_S_ii'
GPGPU-Sim uArch: core: 12, cta: 0 initialized @(1,0)
GPGPU-Sim uArch: Shader 13 bind to kernel 1 '_Z22bpnn_layerforward_CUDAPfS_S_S_ii'
GPGPU-Sim uArch: core: 13, cta: 0 initialized @(1,0)
GPGPU-Sim uArch: Shader 0 bind to kernel 1 '_Z22bpnn_layerforward_CUDAPfS_S_S_ii'
GPGPU-Sim uArch: core:  0, cta: 0 initialized @(1,0)
GPGPU-Sim uArch: core:  1, cta: 1 initialized @(2,0)
GPGPU-Sim uArch: core:  2, cta: 1 initialized @(2,0)
GPGPU-Sim uArch: core:  3, cta: 1 initialized @(2,0)
GPGPU-Sim uArch: core:  4, cta: 1 initialized @(2,0)
GPGPU-Sim uArch: core:  5, cta: 1 initialized @(2,0)
GPGPU-Sim uArch: core:  6, cta: 1 initialized @(2,0)
GPGPU-Sim uArch: core:  7, cta: 1 initialized @(2,0)
GPGPU-Sim uArch: core:  8, cta: 1 initialized @(2,0)
GPGPU-Sim uArch: core:  9, cta: 1 initialized @(2,0)
GPGPU-Sim uArch: core: 10, cta: 1 initialized @(2,0)
GPGPU-Sim uArch: core: 11, cta: 1 initialized @(2,0)
GPGPU-Sim uArch: core: 12, cta: 1 initialized @(2,0)
GPGPU-Sim uArch: core: 13, cta: 1 initialized @(2,0)
GPGPU-Sim uArch: core:  0, cta: 1 initialized @(2,0)
GPGPU-Sim uArch: core:  1, cta: 2 initialized @(3,0)
GPGPU-Sim uArch: core:  2, cta: 2 initialized @(3,0)
GPGPU-Sim uArch: core:  3, cta: 2 initialized @(3,0)
GPGPU-Sim uArch: core:  4, cta: 2 initialized @(3,0)
GPGPU-Sim uArch: core:  5, cta: 2 initialized @(3,0)
GPGPU-Sim uArch: core:  6, cta: 2 initialized @(3,0)
GPGPU-Sim uArch: core:  7, cta: 2 initialized @(3,0)
GPGPU-Sim uArch: core:  8, cta: 2 initialized @(3,0)
GPGPU-Sim uArch: core:  9, cta: 2 initialized @(3,0)
GPGPU-Sim uArch: core: 10, cta: 2 initialized @(3,0)
GPGPU-Sim uArch: core: 11, cta: 2 initialized @(3,0)
GPGPU-Sim uArch: core: 12, cta: 2 initialized @(3,0)
GPGPU-Sim uArch: core: 13, cta: 2 initialized @(3,0)
GPGPU-Sim uArch: core:  0, cta: 2 initialized @(3,0)
GPGPU-Sim uArch: core:  1, cta: 3 initialized @(4,0)
GPGPU-Sim uArch: core:  2, cta: 3 initialized @(4,0)
GPGPU-Sim uArch: core:  3, cta: 3 initialized @(4,0)
GPGPU-Sim uArch: core:  4, cta: 3 initialized @(4,0)
GPGPU-Sim uArch: core:  5, cta: 3 initialized @(4,0)
GPGPU-Sim uArch: core:  6, cta: 3 initialized @(4,0)
GPGPU-Sim uArch: core:  7, cta: 3 initialized @(4,0)
GPGPU-Sim uArch: core:  8, cta: 3 initialized @(4,0)
GPGPU-Sim uArch: core:  9, cta: 3 initialized @(4,0)
GPGPU-Sim uArch: core: 10, cta: 3 initialized @(4,0)
GPGPU-Sim uArch: core: 11, cta: 3 initialized @(4,0)
GPGPU-Sim uArch: core: 12, cta: 3 initialized @(4,0)
GPGPU-Sim uArch: core: 13, cta: 3 initialized @(4,0)
GPGPU-Sim uArch: core:  0, cta: 3 initialized @(4,0)
GPGPU-Sim uArch: core:  1, cta: 4 initialized @(5,0)
GPGPU-Sim uArch: core:  2, cta: 4 initialized @(5,0)
GPGPU-Sim uArch: core:  3, cta: 4 initialized @(5,0)
GPGPU-Sim uArch: core:  4, cta: 4 initialized @(5,0)
GPGPU-Sim uArch: core:  5, cta: 4 initialized @(5,0)
GPGPU-Sim uArch: core:  6, cta: 4 initialized @(5,0)
GPGPU-Sim uArch: core:  7, cta: 4 initialized @(5,0)
GPGPU-Sim uArch: core:  8, cta: 4 initialized @(5,0)
GPGPU-Sim uArch: core:  9, cta: 4 initialized @(5,0)
GPGPU-Sim uArch: core: 10, cta: 4 initialized @(5,0)
GPGPU-Sim uArch: core: 11, cta: 4 initialized @(5,0)
GPGPU-Sim uArch: core: 12, cta: 4 initialized @(5,0)
GPGPU-Sim uArch: core: 13, cta: 4 initialized @(5,0)
GPGPU-Sim uArch: core:  0, cta: 4 initialized @(5,0)
GPGPU-Sim uArch: core:  1, cta: 5 initialized @(6,0)
GPGPU-Sim uArch: core:  2, cta: 5 initialized @(6,0)
GPGPU-Sim uArch: core:  3, cta: 5 initialized @(6,0)
GPGPU-Sim uArch: core:  4, cta: 5 initialized @(6,0)
GPGPU-Sim uArch: core:  5, cta: 5 initialized @(6,0)
GPGPU-Sim uArch: core:  6, cta: 5 initialized @(6,0)
GPGPU-Sim uArch: core:  7, cta: 5 initialized @(6,0)
GPGPU-Sim uArch: core:  8, cta: 5 initialized @(6,0)
GPGPU-Sim uArch: core:  9, cta: 5 initialized @(6,0)
GPGPU-Sim uArch: core: 10, cta: 5 initialized @(6,0)
GPGPU-Sim uArch: core: 11, cta: 5 initialized @(6,0)
GPGPU-Sim uArch: core: 12, cta: 5 initialized @(6,0)
GPGPU-Sim uArch: core: 13, cta: 5 initialized @(6,0)
GPGPU-Sim uArch: core:  0, cta: 5 initialized @(6,0)
GPGPU-Sim PTX: WARNING (_1.ptx:143) ** reading undefined register '$r124' (cuid:0). Setting to 0X00000000. This is okay if you are simulating the native ISA
GPGPU-Sim uArch: Shader 7 finished CTA #3 (11833,0), 5 CTAs running
GPGPU-Sim uArch: core:  7, cta: 3 initialized @(11834,0)
GPGPU-Sim uArch: Shader 7 finished CTA #4 (11997,0), 5 CTAs running
GPGPU-Sim uArch: core:  7, cta: 4 initialized @(11998,0)
GPGPU-Sim uArch: Shader 7 finished CTA #5 (12016,0), 5 CTAs running
GPGPU-Sim uArch: core:  7, cta: 5 initialized @(12017,0)
GPGPU-Sim uArch: Shader 7 finished CTA #0 (12064,0), 5 CTAs running
GPGPU-Sim uArch: core:  7, cta: 0 initialized @(12065,0)
GPGPU-Sim uArch: Shader 10 finished CTA #4 (12068,0), 5 CTAs running
GPGPU-Sim uArch: core: 10, cta: 4 initialized @(12069,0)
GPGPU-Sim uArch: Shader 7 finished CTA #1 (12075,0), 5 CTAs running
GPGPU-Sim uArch: core:  7, cta: 1 initialized @(12076,0)
GPGPU-Sim uArch: Shader 10 finished CTA #5 (12095,0), 5 CTAs running
GPGPU-Sim uArch: core: 10, cta: 5 initialized @(12096,0)
GPGPU-Sim uArch: Shader 6 finished CTA #3 (12099,0), 5 CTAs running
GPGPU-Sim uArch: core:  6, cta: 3 initialized @(12100,0)
GPGPU-Sim uArch: Shader 9 finished CTA #4 (12105,0), 5 CTAs running
GPGPU-Sim uArch: core:  9, cta: 4 initialized @(12106,0)
GPGPU-Sim uArch: Shader 10 finished CTA #0 (12111,0), 5 CTAs running
GPGPU-Sim uArch: core: 10, cta: 0 initialized @(12112,0)
GPGPU-Sim uArch: Shader 8 finished CTA #2 (12117,0), 5 CTAs running
GPGPU-Sim uArch: core:  8, cta: 2 initialized @(12118,0)
GPGPU-Sim uArch: Shader 7 finished CTA #2 (12127,0), 5 CTAs running
GPGPU-Sim uArch: core:  7, cta: 2 initialized @(12128,0)
GPGPU-Sim uArch: Shader 9 finished CTA #5 (12163,0), 5 CTAs running
GPGPU-Sim uArch: core:  9, cta: 5 initialized @(12164,0)
GPGPU-Sim uArch: Shader 8 finished CTA #3 (12168,0), 5 CTAs running
GPGPU-Sim uArch: core:  8, cta: 3 initialized @(12169,0)
GPGPU-Sim uArch: Shader 10 finished CTA #1 (12175,0), 5 CTAs running
GPGPU-Sim uArch: core: 10, cta: 1 initialized @(12176,0)
GPGPU-Sim uArch: Shader 10 finished CTA #2 (12187,0), 5 CTAs running
GPGPU-Sim uArch: core: 10, cta: 2 initialized @(12188,0)
GPGPU-Sim uArch: Shader 8 finished CTA #4 (12193,0), 5 CTAs running
GPGPU-Sim uArch: core:  8, cta: 4 initialized @(12194,0)
GPGPU-Sim uArch: Shader 2 finished CTA #3 (12206,0), 5 CTAs running
GPGPU-Sim uArch: core:  2, cta: 3 initialized @(12207,0)
GPGPU-Sim uArch: Shader 9 finished CTA #0 (12227,0), 5 CTAs running
GPGPU-Sim uArch: core:  9, cta: 0 initialized @(12228,0)
GPGPU-Sim uArch: Shader 8 finished CTA #5 (12240,0), 5 CTAs running
GPGPU-Sim uArch: core:  8, cta: 5 initialized @(12241,0)
GPGPU-Sim uArch: Shader 8 finished CTA #0 (12265,0), 5 CTAs running
GPGPU-Sim uArch: Shader 8 finished CTA #1 (12265,0), 4 CTAs running
GPGPU-Sim uArch: core:  8, cta: 0 initialized @(12266,0)
GPGPU-Sim uArch: core:  8, cta: 1 initialized @(12267,0)
GPGPU-Sim uArch: Shader 6 finished CTA #5 (12295,0), 5 CTAs running
GPGPU-Sim uArch: core:  6, cta: 5 initialized @(12296,0)
GPGPU-Sim uArch: Shader 6 finished CTA #4 (12304,0), 5 CTAs running
GPGPU-Sim uArch: core:  6, cta: 4 initialized @(12305,0)
GPGPU-Sim uArch: Shader 13 finished CTA #0 (12311,0), 5 CTAs running
GPGPU-Sim uArch: core: 13, cta: 0 initialized @(12312,0)
GPGPU-Sim uArch: Shader 10 finished CTA #3 (12319,0), 5 CTAs running
GPGPU-Sim uArch: core: 10, cta: 3 initialized @(12320,0)
GPGPU-Sim uArch: Shader 6 finished CTA #0 (12321,0), 5 CTAs running
GPGPU-Sim uArch: core:  6, cta: 0 initialized @(12322,0)
GPGPU-Sim uArch: Shader 1 finished CTA #5 (12332,0), 5 CTAs running
GPGPU-Sim uArch: core:  1, cta: 5 initialized @(12333,0)
GPGPU-Sim uArch: Shader 9 finished CTA #1 (12335,0), 5 CTAs running
GPGPU-Sim uArch: core:  9, cta: 1 initialized @(12336,0)
GPGPU-Sim uArch: Shader 6 finished CTA #1 (12345,0), 5 CTAs running
GPGPU-Sim uArch: core:  6, cta: 1 initialized @(12346,0)
GPGPU-Sim uArch: Shader 9 finished CTA #2 (12364,0), 5 CTAs running
GPGPU-Sim uArch: core:  9, cta: 2 initialized @(12365,0)
GPGPU-Sim uArch: Shader 13 finished CTA #2 (12369,0), 5 CTAs running
GPGPU-Sim uArch: core: 13, cta: 2 initialized @(12370,0)
GPGPU-Sim uArch: Shader 13 finished CTA #1 (12381,0), 5 CTAs running
GPGPU-Sim uArch: core: 13, cta: 1 initialized @(12382,0)
GPGPU-Sim uArch: Shader 3 finished CTA #3 (12388,0), 5 CTAs running
GPGPU-Sim uArch: core:  3, cta: 3 initialized @(12389,0)
GPGPU-Sim uArch: Shader 13 finished CTA #5 (12402,0), 5 CTAs running
GPGPU-Sim uArch: core: 13, cta: 5 initialized @(12403,0)
GPGPU-Sim uArch: Shader 4 finished CTA #0 (12411,0), 5 CTAs running
GPGPU-Sim uArch: core:  4, cta: 0 initialized @(12412,0)
GPGPU-Sim uArch: Shader 2 finished CTA #4 (12413,0), 5 CTAs running
GPGPU-Sim uArch: core:  2, cta: 4 initialized @(12414,0)
GPGPU-Sim uArch: Shader 12 finished CTA #0 (12422,0), 5 CTAs running
GPGPU-Sim uArch: core: 12, cta: 0 initialized @(12423,0)
GPGPU-Sim uArch: Shader 3 finished CTA #4 (12427,0), 5 CTAs running
GPGPU-Sim uArch: core:  3, cta: 4 initialized @(12428,0)
GPGPU-Sim uArch: Shader 11 finished CTA #0 (12431,0), 5 CTAs running
GPGPU-Sim uArch: core: 11, cta: 0 initialized @(12432,0)
GPGPU-Sim uArch: Shader 13 finished CTA #3 (12434,0), 5 CTAs running
GPGPU-Sim uArch: core: 13, cta: 3 initialized @(12435,0)
GPGPU-Sim uArch: Shader 1 finished CTA #3 (12437,0), 5 CTAs running
GPGPU-Sim uArch: core:  1, cta: 3 initialized @(12438,0)
GPGPU-Sim uArch: Shader 11 finished CTA #4 (12440,0), 5 CTAs running
GPGPU-Sim uArch: core: 11, cta: 4 initialized @(12441,0)
GPGPU-Sim uArch: Shader 1 finished CTA #4 (12451,0), 5 CTAs running
GPGPU-Sim uArch: core:  1, cta: 4 initialized @(12452,0)
GPGPU-Sim uArch: Shader 4 finished CTA #1 (12457,0), 5 CTAs running
GPGPU-Sim uArch: core:  4, cta: 1 initialized @(12458,0)
GPGPU-Sim uArch: Shader 2 finished CTA #5 (12463,0), 5 CTAs running
GPGPU-Sim uArch: core:  2, cta: 5 initialized @(12464,0)
GPGPU-Sim uArch: Shader 13 finished CTA #4 (12470,0), 5 CTAs running
GPGPU-Sim uArch: core: 13, cta: 4 initialized @(12471,0)
GPGPU-Sim uArch: Shader 9 finished CTA #3 (12479,0), 5 CTAs running
GPGPU-Sim uArch: core:  9, cta: 3 initialized @(12480,0)
GPGPU-Sim uArch: Shader 1 finished CTA #0 (12480,0), 5 CTAs running
GPGPU-Sim uArch: Shader 1 finished CTA #1 (12480,0), 4 CTAs running
GPGPU-Sim uArch: core:  1, cta: 0 initialized @(12481,0)
GPGPU-Sim uArch: core:  1, cta: 1 initialized @(12482,0)
GPGPU-Sim uArch: Shader 3 finished CTA #1 (12482,0), 5 CTAs running
GPGPU-Sim uArch: core:  3, cta: 1 initialized @(12483,0)
GPGPU-Sim uArch: Shader 2 finished CTA #1 (12488,0), 5 CTAs running
GPGPU-Sim uArch: core:  2, cta: 1 initialized @(12489,0)
GPGPU-Sim uArch: Shader 4 finished CTA #3 (12494,0), 5 CTAs running
GPGPU-Sim uArch: core:  4, cta: 3 initialized @(12495,0)
GPGPU-Sim uArch: Shader 4 finished CTA #2 (12502,0), 5 CTAs running
GPGPU-Sim uArch: core:  4, cta: 2 initialized @(12503,0)
GPGPU-Sim uArch: Shader 11 finished CTA #2 (12505,0), 5 CTAs running
GPGPU-Sim uArch: core: 11, cta: 2 initialized @(12506,0)
GPGPU-Sim uArch: Shader 2 finished CTA #2 (12508,0), 5 CTAs running
GPGPU-Sim uArch: core:  2, cta: 2 initialized @(12509,0)
GPGPU-Sim uArch: Shader 4 finished CTA #4 (12510,0), 5 CTAs running
GPGPU-Sim uArch: core:  4, cta: 4 initialized @(12511,0)
GPGPU-Sim uArch: Shader 1 finished CTA #2 (12512,0), 5 CTAs running
GPGPU-Sim uArch: core:  1, cta: 2 initialized @(12513,0)
GPGPU-Sim uArch: Shader 12 finished CTA #2 (12515,0), 5 CTAs running
GPGPU-Sim uArch: core: 12, cta: 2 initialized @(12516,0)
GPGPU-Sim uArch: Shader 12 finished CTA #4 (12524,0), 5 CTAs running
GPGPU-Sim uArch: core: 12, cta: 4 initialized @(12525,0)
GPGPU-Sim uArch: Shader 6 finished CTA #2 (12525,0), 5 CTAs running
GPGPU-Sim uArch: core:  6, cta: 2 initialized @(12526,0)
GPGPU-Sim uArch: Shader 3 finished CTA #2 (12531,0), 5 CTAs running
GPGPU-Sim uArch: Shader 11 finished CTA #1 (12531,0), 5 CTAs running
GPGPU-Sim uArch: core: 11, cta: 1 initialized @(12532,0)
GPGPU-Sim uArch: core:  3, cta: 2 initialized @(12532,0)
GPGPU-Sim uArch: Shader 12 finished CTA #5 (12533,0), 5 CTAs running
GPGPU-Sim uArch: Shader 12 finished CTA #1 (12533,0), 4 CTAs running
GPGPU-Sim uArch: core: 12, cta: 1 initialized @(12534,0)
GPGPU-Sim uArch: core: 12, cta: 5 initialized @(12535,0)
GPGPU-Sim uArch: Shader 11 finished CTA #5 (12540,0), 5 CTAs running
GPGPU-Sim uArch: core: 11, cta: 5 initialized @(12541,0)
GPGPU-Sim uArch: Shader 3 finished CTA #5 (12551,0), 5 CTAs running
GPGPU-Sim uArch: core:  3, cta: 5 initialized @(12552,0)
GPGPU-Sim uArch: Shader 5 finished CTA #3 (12571,0), 5 CTAs running
GPGPU-Sim uArch: core:  5, cta: 3 initialized @(12572,0)
GPGPU-Sim uArch: Shader 3 finished CTA #0 (12573,0), 5 CTAs running
GPGPU-Sim uArch: core:  3, cta: 0 initialized @(12574,0)
GPGPU-Sim uArch: Shader 2 finished CTA #0 (12575,0), 5 CTAs running
GPGPU-Sim uArch: core:  2, cta: 0 initialized @(12576,0)
GPGPU-Sim uArch: Shader 11 finished CTA #3 (12576,0), 5 CTAs running
GPGPU-Sim uArch: core: 11, cta: 3 initialized @(12577,0)
GPGPU-Sim uArch: Shader 12 finished CTA #3 (12605,0), 5 CTAs running
GPGPU-Sim uArch: core: 12, cta: 3 initialized @(12606,0)
GPGPU-Sim uArch: Shader 4 finished CTA #5 (12616,0), 5 CTAs running
GPGPU-Sim uArch: core:  4, cta: 5 initialized @(12617,0)
GPGPU-Sim uArch: Shader 0 finished CTA #1 (12620,0), 5 CTAs running
GPGPU-Sim uArch: core:  0, cta: 1 initialized @(12621,0)
GPGPU-Sim uArch: Shader 5 finished CTA #4 (12629,0), 5 CTAs running
GPGPU-Sim uArch: core:  5, cta: 4 initialized @(12630,0)
GPGPU-Sim uArch: Shader 0 finished CTA #4 (12639,0), 5 CTAs running
GPGPU-Sim uArch: core:  0, cta: 4 initialized @(12640,0)
GPGPU-Sim uArch: Shader 5 finished CTA #5 (12640,0), 5 CTAs running
GPGPU-Sim uArch: core:  5, cta: 5 initialized @(12641,0)
GPGPU-Sim uArch: Shader 0 finished CTA #2 (12647,0), 5 CTAs running
GPGPU-Sim uArch: core:  0, cta: 2 initialized @(12648,0)
GPGPU-Sim uArch: Shader 0 finished CTA #3 (12671,0), 5 CTAs running
GPGPU-Sim uArch: Shader 5 finished CTA #1 (12671,0), 5 CTAs running
GPGPU-Sim uArch: core:  5, cta: 1 initialized @(12672,0)
GPGPU-Sim uArch: core:  0, cta: 3 initialized @(12672,0)
GPGPU-Sim uArch: Shader 0 finished CTA #5 (12679,0), 5 CTAs running
GPGPU-Sim uArch: Shader 0 finished CTA #0 (12679,0), 4 CTAs running
GPGPU-Sim uArch: core:  0, cta: 0 initialized @(12680,0)
GPGPU-Sim uArch: core:  0, cta: 5 initialized @(12681,0)
GPGPU-Sim uArch: Shader 5 finished CTA #0 (12695,0), 5 CTAs running
GPGPU-Sim uArch: core:  5, cta: 0 initialized @(12696,0)
GPGPU-Sim uArch: Shader 5 finished CTA #2 (12703,0), 5 CTAs running
GPGPU-Sim uArch: core:  5, cta: 2 initialized @(12704,0)
GPGPU-Sim uArch: Shader 1 finished CTA #5 (20775,0), 5 CTAs running
GPGPU-Sim uArch: core:  1, cta: 5 initialized @(20776,0)
GPGPU-Sim uArch: Shader 2 finished CTA #3 (21528,0), 5 CTAs running
GPGPU-Sim uArch: core:  2, cta: 3 initialized @(21529,0)
GPGPU-Sim uArch: Shader 2 finished CTA #4 (21542,0), 5 CTAs running
GPGPU-Sim uArch: core:  2, cta: 4 initialized @(21543,0)
GPGPU-Sim uArch: Shader 2 finished CTA #5 (21622,0), 5 CTAs running
GPGPU-Sim uArch: core:  2, cta: 5 initialized @(21623,0)
GPGPU-Sim uArch: Shader 2 finished CTA #0 (21697,0), 5 CTAs running
GPGPU-Sim uArch: core:  2, cta: 0 initialized @(21698,0)
GPGPU-Sim uArch: Shader 2 finished CTA #2 (21764,0), 5 CTAs running
GPGPU-Sim uArch: core:  2, cta: 2 initialized @(21765,0)
GPGPU-Sim uArch: Shader 2 finished CTA #1 (21788,0), 5 CTAs running
GPGPU-Sim uArch: core:  2, cta: 1 initialized @(21789,0)
GPGPU-Sim uArch: Shader 7 finished CTA #3 (21907,0), 5 CTAs running
GPGPU-Sim uArch: core:  7, cta: 3 initialized @(21908,0)
GPGPU-Sim uArch: Shader 7 finished CTA #4 (22001,0), 5 CTAs running
GPGPU-Sim uArch: core:  7, cta: 4 initialized @(22002,0)
GPGPU-Sim uArch: Shader 7 finished CTA #5 (22042,0), 5 CTAs running
GPGPU-Sim uArch: core:  7, cta: 5 initialized @(22043,0)
GPGPU-Sim uArch: Shader 7 finished CTA #0 (22072,0), 5 CTAs running
GPGPU-Sim uArch: core:  7, cta: 0 initialized @(22073,0)
GPGPU-Sim uArch: Shader 7 finished CTA #1 (22101,0), 5 CTAs running
GPGPU-Sim uArch: core:  7, cta: 1 initialized @(22102,0)
GPGPU-Sim uArch: Shader 7 finished CTA #2 (22176,0), 5 CTAs running
GPGPU-Sim uArch: core:  7, cta: 2 initialized @(22177,0)
GPGPU-Sim uArch: Shader 9 finished CTA #4 (22234,0), 5 CTAs running
GPGPU-Sim uArch: core:  9, cta: 4 initialized @(22235,0)
GPGPU-Sim uArch: Shader 9 finished CTA #5 (22285,0), 5 CTAs running
GPGPU-Sim uArch: core:  9, cta: 5 initialized @(22286,0)
GPGPU-Sim uArch: Shader 1 finished CTA #0 (22312,0), 5 CTAs running
GPGPU-Sim uArch: core:  1, cta: 0 initialized @(22313,0)
GPGPU-Sim uArch: Shader 9 finished CTA #0 (22349,0), 5 CTAs running
GPGPU-Sim uArch: core:  9, cta: 0 initialized @(22350,0)
GPGPU-Sim uArch: Shader 1 finished CTA #1 (22361,0), 5 CTAs running
GPGPU-Sim uArch: core:  1, cta: 1 initialized @(22362,0)
GPGPU-Sim uArch: Shader 9 finished CTA #1 (22375,0), 5 CTAs running
GPGPU-Sim uArch: core:  9, cta: 1 initialized @(22376,0)
GPGPU-Sim uArch: Shader 10 finished CTA #4 (22409,0), 5 CTAs running
GPGPU-Sim uArch: core: 10, cta: 4 initialized @(22410,0)
GPGPU-Sim uArch: Shader 9 finished CTA #2 (22410,0), 5 CTAs running
GPGPU-Sim uArch: core:  9, cta: 2 initialized @(22411,0)
GPGPU-Sim uArch: Shader 6 finished CTA #3 (22412,0), 5 CTAs running
GPGPU-Sim uArch: core:  6, cta: 3 initialized @(22413,0)
GPGPU-Sim uArch: Shader 10 finished CTA #5 (22448,0), 5 CTAs running
GPGPU-Sim uArch: core: 10, cta: 5 initialized @(22449,0)
GPGPU-Sim uArch: Shader 1 finished CTA #2 (22454,0), 5 CTAs running
GPGPU-Sim uArch: core:  1, cta: 2 initialized @(22455,0)
GPGPU-Sim uArch: Shader 10 finished CTA #0 (22474,0), 5 CTAs running
GPGPU-Sim uArch: core: 10, cta: 0 initialized @(22475,0)
GPGPU-Sim uArch: Shader 3 finished CTA #1 (22517,0), 5 CTAs running
GPGPU-Sim uArch: core:  3, cta: 1 initialized @(22518,0)
GPGPU-Sim uArch: Shader 9 finished CTA #3 (22528,0), 5 CTAs running
GPGPU-Sim uArch: core:  9, cta: 3 initialized @(22529,0)
GPGPU-Sim uArch: Shader 1 finished CTA #3 (22552,0), 5 CTAs running
GPGPU-Sim uArch: core:  1, cta: 3 initialized @(22553,0)
GPGPU-Sim uArch: Shader 13 finished CTA #0 (22557,0), 5 CTAs running
GPGPU-Sim uArch: core: 13, cta: 0 initialized @(22558,0)
GPGPU-Sim uArch: Shader 11 finished CTA #2 (22572,0), 5 CTAs running
GPGPU-Sim uArch: core: 11, cta: 2 initialized @(22573,0)
GPGPU-Sim uArch: Shader 1 finished CTA #4 (22578,0), 5 CTAs running
GPGPU-Sim uArch: core:  1, cta: 4 initialized @(22579,0)
GPGPU-Sim uArch: Shader 5 finished CTA #3 (22596,0), 5 CTAs running
GPGPU-Sim uArch: core:  5, cta: 3 initialized @(22597,0)
GPGPU-Sim uArch: Shader 13 finished CTA #2 (22600,0), 5 CTAs running
GPGPU-Sim uArch: core: 13, cta: 2 initialized @(22601,0)
GPGPU-Sim uArch: Shader 8 finished CTA #2 (22603,0), 5 CTAs running
GPGPU-Sim uArch: core:  8, cta: 2 initialized @(22604,0)
GPGPU-Sim uArch: Shader 13 finished CTA #1 (22609,0), 5 CTAs running
GPGPU-Sim uArch: core: 13, cta: 1 initialized @(22610,0)
GPGPU-Sim uArch: Shader 11 finished CTA #1 (22618,0), 5 CTAs running
GPGPU-Sim uArch: core: 11, cta: 1 initialized @(22619,0)
GPGPU-Sim uArch: Shader 11 finished CTA #5 (22678,0), 5 CTAs running
GPGPU-Sim uArch: Shader 11 finished CTA #0 (22678,0), 4 CTAs running
GPGPU-Sim uArch: core: 11, cta: 0 initialized @(22679,0)
GPGPU-Sim uArch: core: 11, cta: 5 initialized @(22680,0)
GPGPU-Sim uArch: Shader 11 finished CTA #4 (22683,0), 5 CTAs running
GPGPU-Sim uArch: core: 11, cta: 4 initialized @(22684,0)
GPGPU-Sim uArch: Shader 13 finished CTA #4 (22701,0), 5 CTAs running
GPGPU-Sim uArch: core: 13, cta: 4 initialized @(22702,0)
GPGPU-Sim uArch: Shader 13 finished CTA #3 (22709,0), 5 CTAs running
GPGPU-Sim uArch: core: 13, cta: 3 initialized @(22710,0)
GPGPU-Sim uArch: Shader 10 finished CTA #1 (22728,0), 5 CTAs running
GPGPU-Sim uArch: core: 10, cta: 1 initialized @(22729,0)
GPGPU-Sim uArch: Shader 12 finished CTA #1 (22731,0), 5 CTAs running
GPGPU-Sim uArch: core: 12, cta: 1 initialized @(22732,0)
GPGPU-Sim uArch: Shader 12 finished CTA #2 (22740,0), 5 CTAs running
GPGPU-Sim uArch: core: 12, cta: 2 initialized @(22741,0)
GPGPU-Sim uArch: Shader 3 finished CTA #2 (22750,0), 5 CTAs running
GPGPU-Sim uArch: core:  3, cta: 2 initialized @(22751,0)
GPGPU-Sim uArch: Shader 8 finished CTA #3 (22753,0), 5 CTAs running
GPGPU-Sim uArch: core:  8, cta: 3 initialized @(22754,0)
GPGPU-Sim uArch: Shader 4 finished CTA #3 (22760,0), 5 CTAs running
GPGPU-Sim uArch: core:  4, cta: 3 initialized @(22761,0)
GPGPU-Sim uArch: Shader 10 finished CTA #2 (22763,0), 5 CTAs running
GPGPU-Sim uArch: core: 10, cta: 2 initialized @(22764,0)
GPGPU-Sim uArch: Shader 5 finished CTA #1 (22764,0), 5 CTAs running
GPGPU-Sim uArch: core:  5, cta: 1 initialized @(22765,0)
GPGPU-Sim uArch: Shader 10 finished CTA #3 (22779,0), 5 CTAs running
GPGPU-Sim uArch: core: 10, cta: 3 initialized @(22780,0)
GPGPU-Sim uArch: Shader 4 finished CTA #4 (22787,0), 5 CTAs running
GPGPU-Sim uArch: core:  4, cta: 4 initialized @(22788,0)
GPGPU-Sim uArch: Shader 8 finished CTA #4 (22788,0), 5 CTAs running
GPGPU-Sim uArch: core:  8, cta: 4 initialized @(22789,0)
GPGPU-Sim uArch: Shader 8 finished CTA #5 (22800,0), 5 CTAs running
GPGPU-Sim uArch: core:  8, cta: 5 initialized @(22801,0)
GPGPU-Sim uArch: Shader 5 finished CTA #4 (22810,0), 5 CTAs running
GPGPU-Sim uArch: core:  5, cta: 4 initialized @(22811,0)
GPGPU-Sim uArch: Shader 13 finished CTA #5 (22814,0), 5 CTAs running
GPGPU-Sim uArch: core: 13, cta: 5 initialized @(22815,0)
GPGPU-Sim uArch: Shader 4 finished CTA #5 (22819,0), 5 CTAs running
GPGPU-Sim uArch: core:  4, cta: 5 initialized @(22820,0)
GPGPU-Sim uArch: Shader 4 finished CTA #2 (22835,0), 5 CTAs running
GPGPU-Sim uArch: core:  4, cta: 2 initialized @(22836,0)
GPGPU-Sim uArch: Shader 11 finished CTA #3 (22838,0), 5 CTAs running
GPGPU-Sim uArch: core: 11, cta: 3 initialized @(22839,0)
GPGPU-Sim uArch: Shader 6 finished CTA #4 (22842,0), 5 CTAs running
GPGPU-Sim uArch: core:  6, cta: 4 initialized @(22843,0)
GPGPU-Sim uArch: Shader 5 finished CTA #5 (22853,0), 5 CTAs running
GPGPU-Sim uArch: core:  5, cta: 5 initialized @(22854,0)
GPGPU-Sim uArch: Shader 4 finished CTA #1 (22856,0), 5 CTAs running
GPGPU-Sim uArch: core:  4, cta: 1 initialized @(22857,0)
GPGPU-Sim uArch: Shader 8 finished CTA #0 (22864,0), 5 CTAs running
GPGPU-Sim uArch: core:  8, cta: 0 initialized @(22865,0)
GPGPU-Sim uArch: Shader 6 finished CTA #5 (22877,0), 5 CTAs running
GPGPU-Sim uArch: core:  6, cta: 5 initialized @(22878,0)
GPGPU-Sim uArch: Shader 12 finished CTA #0 (22883,0), 5 CTAs running
GPGPU-Sim uArch: core: 12, cta: 0 initialized @(22884,0)
GPGPU-Sim uArch: Shader 8 finished CTA #1 (22887,0), 5 CTAs running
GPGPU-Sim uArch: core:  8, cta: 1 initialized @(22888,0)
GPGPU-Sim uArch: Shader 6 finished CTA #0 (22889,0), 5 CTAs running
GPGPU-Sim uArch: core:  6, cta: 0 initialized @(22890,0)
GPGPU-Sim uArch: Shader 5 finished CTA #2 (22896,0), 5 CTAs running
GPGPU-Sim uArch: core:  5, cta: 2 initialized @(22897,0)
GPGPU-Sim uArch: Shader 12 finished CTA #3 (22897,0), 5 CTAs running
GPGPU-Sim uArch: core: 12, cta: 3 initialized @(22898,0)
GPGPU-Sim uArch: Shader 6 finished CTA #1 (22903,0), 5 CTAs running
GPGPU-Sim uArch: core:  6, cta: 1 initialized @(22904,0)
GPGPU-Sim uArch: Shader 5 finished CTA #0 (22908,0), 5 CTAs running
GPGPU-Sim uArch: core:  5, cta: 0 initialized @(22909,0)
GPGPU-Sim uArch: Shader 3 finished CTA #3 (22910,0), 5 CTAs running
GPGPU-Sim uArch: core:  3, cta: 3 initialized @(22911,0)
GPGPU-Sim uArch: Shader 3 finished CTA #4 (22919,0), 5 CTAs running
GPGPU-Sim uArch: core:  3, cta: 4 initialized @(22920,0)
GPGPU-Sim uArch: Shader 4 finished CTA #0 (22921,0), 5 CTAs running
GPGPU-Sim uArch: core:  4, cta: 0 initialized @(22922,0)
GPGPU-Sim uArch: Shader 12 finished CTA #4 (22926,0), 5 CTAs running
GPGPU-Sim uArch: core: 12, cta: 4 initialized @(22927,0)
GPGPU-Sim uArch: Shader 6 finished CTA #2 (22928,0), 5 CTAs running
GPGPU-Sim uArch: core:  6, cta: 2 initialized @(22929,0)
GPGPU-Sim uArch: Shader 0 finished CTA #5 (22932,0), 5 CTAs running
GPGPU-Sim uArch: core:  0, cta: 5 initialized @(22933,0)
GPGPU-Sim uArch: Shader 3 finished CTA #5 (22943,0), 5 CTAs running
GPGPU-Sim uArch: core:  3, cta: 5 initialized @(22944,0)
GPGPU-Sim uArch: Shader 12 finished CTA #5 (22950,0), 5 CTAs running
GPGPU-Sim uArch: core: 12, cta: 5 initialized @(22951,0)
GPGPU-Sim uArch: Shader 3 finished CTA #0 (22962,0), 5 CTAs running
GPGPU-Sim uArch: core:  3, cta: 0 initialized @(22963,0)
GPGPU-Sim uArch: Shader 0 finished CTA #0 (22984,0), 5 CTAs running
GPGPU-Sim uArch: core:  0, cta: 0 initialized @(22985,0)
GPGPU-Sim uArch: Shader 0 finished CTA #1 (23009,0), 5 CTAs running
GPGPU-Sim uArch: core:  0, cta: 1 initialized @(23010,0)
GPGPU-Sim uArch: Shader 0 finished CTA #2 (23030,0), 5 CTAs running
GPGPU-Sim uArch: Shader 0 finished CTA #3 (23030,0), 4 CTAs running
GPGPU-Sim uArch: core:  0, cta: 2 initialized @(23031,0)
GPGPU-Sim uArch: core:  0, cta: 3 initialized @(23032,0)
GPGPU-Sim uArch: Shader 0 finished CTA #4 (23067,0), 5 CTAs running
GPGPU-Sim uArch: core:  0, cta: 4 initialized @(23068,0)
GPGPU-Sim uArch: Shader 1 finished CTA #5 (28551,0), 5 CTAs running
GPGPU-Sim uArch: core:  1, cta: 5 initialized @(28552,0)
GPGPU-Sim uArch: Shader 12 finished CTA #1 (30862,0), 5 CTAs running
GPGPU-Sim uArch: core: 12, cta: 1 initialized @(30863,0)
GPGPU-Sim uArch: Shader 6 finished CTA #3 (30889,0), 5 CTAs running
GPGPU-Sim uArch: core:  6, cta: 3 initialized @(30890,0)
GPGPU-Sim uArch: Shader 12 finished CTA #2 (30917,0), 5 CTAs running
GPGPU-Sim uArch: core: 12, cta: 2 initialized @(30918,0)
GPGPU-Sim uArch: Shader 6 finished CTA #4 (30926,0), 5 CTAs running
GPGPU-Sim uArch: core:  6, cta: 4 initialized @(30927,0)
GPGPU-Sim uArch: Shader 6 finished CTA #5 (30960,0), 5 CTAs running
GPGPU-Sim uArch: core:  6, cta: 5 initialized @(30961,0)
GPGPU-Sim uArch: Shader 2 finished CTA #3 (31346,0), 5 CTAs running
GPGPU-Sim uArch: core:  2, cta: 3 initialized @(31347,0)
GPGPU-Sim uArch: Shader 2 finished CTA #4 (31385,0), 5 CTAs running
GPGPU-Sim uArch: core:  2, cta: 4 initialized @(31386,0)
GPGPU-Sim uArch: Shader 2 finished CTA #5 (31397,0), 5 CTAs running
GPGPU-Sim uArch: core:  2, cta: 5 initialized @(31398,0)
GPGPU-Sim uArch: Shader 9 finished CTA #4 (31426,0), 5 CTAs running
GPGPU-Sim uArch: core:  9, cta: 4 initialized @(31427,0)
GPGPU-Sim uArch: Shader 9 finished CTA #5 (31470,0), 5 CTAs running
GPGPU-Sim uArch: core:  9, cta: 5 initialized @(31471,0)
GPGPU-Sim uArch: Shader 2 finished CTA #0 (31486,0), 5 CTAs running
GPGPU-Sim uArch: core:  2, cta: 0 initialized @(31487,0)
GPGPU-Sim uArch: Shader 2 finished CTA #1 (31525,0), 5 CTAs running
GPGPU-Sim uArch: Shader 2 finished CTA #2 (31525,0), 4 CTAs running
GPGPU-Sim uArch: core:  2, cta: 1 initialized @(31526,0)
GPGPU-Sim uArch: core:  2, cta: 2 initialized @(31527,0)
GPGPU-Sim uArch: Shader 9 finished CTA #2 (31570,0), 5 CTAs running
GPGPU-Sim uArch: core:  9, cta: 2 initialized @(31571,0)
GPGPU-Sim uArch: Shader 9 finished CTA #0 (31608,0), 5 CTAs running
GPGPU-Sim uArch: core:  9, cta: 0 initialized @(31609,0)
GPGPU-Sim uArch: Shader 9 finished CTA #1 (31624,0), 5 CTAs running
GPGPU-Sim uArch: core:  9, cta: 1 initialized @(31625,0)
GPGPU-Sim uArch: Shader 9 finished CTA #3 (31692,0), 5 CTAs running
GPGPU-Sim uArch: core:  9, cta: 3 initialized @(31693,0)
GPGPU-Sim uArch: Shader 1 finished CTA #0 (31693,0), 5 CTAs running
GPGPU-Sim uArch: core:  1, cta: 0 initialized @(31694,0)
GPGPU-Sim uArch: Shader 1 finished CTA #1 (31735,0), 5 CTAs running
GPGPU-Sim uArch: core:  1, cta: 1 initialized @(31736,0)
GPGPU-Sim uArch: Shader 7 finished CTA #3 (31904,0), 5 CTAs running
GPGPU-Sim uArch: core:  7, cta: 3 initialized @(31905,0)
GPGPU-Sim uArch: Shader 1 finished CTA #2 (31937,0), 5 CTAs running
GPGPU-Sim uArch: core:  1, cta: 2 initialized @(31938,0)
GPGPU-Sim uArch: Shader 1 finished CTA #3 (31968,0), 5 CTAs running
GPGPU-Sim uArch: core:  1, cta: 3 initialized @(31969,0)
GPGPU-Sim uArch: Shader 7 finished CTA #5 (31985,0), 5 CTAs running
GPGPU-Sim uArch: core:  7, cta: 5 initialized @(31986,0)
GPGPU-Sim uArch: Shader 7 finished CTA #4 (31998,0), 5 CTAs running
GPGPU-Sim uArch: core:  7, cta: 4 initialized @(31999,0)
GPGPU-Sim uArch: Shader 1 finished CTA #4 (32004,0), 5 CTAs running
GPGPU-Sim uArch: core:  1, cta: 4 initialized @(32005,0)
GPGPU-Sim uArch: Shader 7 finished CTA #2 (32077,0), 5 CTAs running
GPGPU-Sim uArch: core:  7, cta: 2 initialized @(32078,0)
GPGPU-Sim uArch: Shader 6 finished CTA #0 (32171,0), 5 CTAs running
GPGPU-Sim uArch: core:  6, cta: 0 initialized @(32172,0)
GPGPU-Sim uArch: Shader 7 finished CTA #0 (32176,0), 5 CTAs running
GPGPU-Sim uArch: core:  7, cta: 0 initialized @(32177,0)
GPGPU-Sim uArch: Shader 6 finished CTA #1 (32180,0), 5 CTAs running
GPGPU-Sim uArch: Shader 6 finished CTA #2 (32180,0), 4 CTAs running
GPGPU-Sim uArch: core:  6, cta: 1 initialized @(32181,0)
GPGPU-Sim uArch: core:  6, cta: 2 initialized @(32182,0)
GPGPU-Sim uArch: Shader 7 finished CTA #1 (32185,0), 5 CTAs running
GPGPU-Sim uArch: core:  7, cta: 1 initialized @(32186,0)
GPGPU-Sim uArch: Shader 12 finished CTA #3 (32220,0), 5 CTAs running
GPGPU-Sim uArch: core: 12, cta: 3 initialized @(32221,0)
GPGPU-Sim uArch: Shader 10 finished CTA #4 (32224,0), 5 CTAs running
GPGPU-Sim uArch: core: 10, cta: 4 initialized @(32225,0)
GPGPU-Sim uArch: Shader 12 finished CTA #0 (32233,0), 5 CTAs running
GPGPU-Sim uArch: core: 12, cta: 0 initialized @(32234,0)
GPGPU-Sim uArch: Shader 10 finished CTA #5 (32272,0), 5 CTAs running
GPGPU-Sim uArch: core: 10, cta: 5 initialized @(32273,0)
GPGPU-Sim uArch: Shader 12 finished CTA #4 (32283,0), 5 CTAs running
GPGPU-Sim uArch: core: 12, cta: 4 initialized @(32284,0)
GPGPU-Sim uArch: Shader 10 finished CTA #3 (32316,0), 5 CTAs running
GPGPU-Sim uArch: core: 10, cta: 3 initialized @(32317,0)
GPGPU-Sim uArch: Shader 12 finished CTA #5 (32355,0), 5 CTAs running
GPGPU-Sim uArch: core: 12, cta: 5 initialized @(32356,0)
GPGPU-Sim uArch: Shader 5 finished CTA #0 (32383,0), 5 CTAs running
GPGPU-Sim uArch: core:  5, cta: 0 initialized @(32384,0)
GPGPU-Sim uArch: Shader 10 finished CTA #1 (32394,0), 5 CTAs running
GPGPU-Sim uArch: core: 10, cta: 1 initialized @(32395,0)
GPGPU-Sim uArch: Shader 10 finished CTA #0 (32417,0), 5 CTAs running
GPGPU-Sim uArch: core: 10, cta: 0 initialized @(32418,0)
GPGPU-Sim uArch: Shader 5 finished CTA #1 (32435,0), 5 CTAs running
GPGPU-Sim uArch: core:  5, cta: 1 initialized @(32436,0)
GPGPU-Sim uArch: Shader 10 finished CTA #2 (32446,0), 5 CTAs running
GPGPU-Sim uArch: core: 10, cta: 2 initialized @(32447,0)
GPGPU-Sim uArch: Shader 5 finished CTA #2 (32460,0), 5 CTAs running
GPGPU-Sim uArch: core:  5, cta: 2 initialized @(32461,0)
GPGPU-Sim uArch: Shader 5 finished CTA #3 (32515,0), 5 CTAs running
GPGPU-Sim uArch: core:  5, cta: 3 initialized @(32516,0)
GPGPU-Sim uArch: Shader 5 finished CTA #4 (32538,0), 5 CTAs running
GPGPU-Sim uArch: Shader 5 finished CTA #5 (32538,0), 4 CTAs running
GPGPU-Sim uArch: core:  5, cta: 4 initialized @(32539,0)
GPGPU-Sim uArch: core:  5, cta: 5 initialized @(32540,0)
GPGPU-Sim uArch: Shader 3 finished CTA #1 (32605,0), 5 CTAs running
GPGPU-Sim uArch: core:  3, cta: 1 initialized @(32606,0)
GPGPU-Sim uArch: Shader 3 finished CTA #2 (32624,0), 5 CTAs running
GPGPU-Sim uArch: core:  3, cta: 2 initialized @(32625,0)
GPGPU-Sim uArch: Shader 13 finished CTA #0 (32635,0), 5 CTAs running
GPGPU-Sim uArch: core: 13, cta: 0 initialized @(32636,0)
GPGPU-Sim uArch: Shader 13 finished CTA #1 (32679,0), 5 CTAs running
GPGPU-Sim uArch: core: 13, cta: 1 initialized @(32680,0)
GPGPU-Sim uArch: Shader 8 finished CTA #1 (32695,0), 5 CTAs running
GPGPU-Sim uArch: core:  8, cta: 1 initialized @(32696,0)
GPGPU-Sim uArch: Shader 3 finished CTA #5 (32700,0), 5 CTAs running
GPGPU-Sim uArch: core:  3, cta: 5 initialized @(32701,0)
GPGPU-Sim uArch: Shader 3 finished CTA #3 (32731,0), 5 CTAs running
GPGPU-Sim uArch: Shader 3 finished CTA #4 (32731,0), 4 CTAs running
GPGPU-Sim uArch: core:  3, cta: 3 initialized @(32732,0)
GPGPU-Sim uArch: core:  3, cta: 4 initialized @(32733,0)
GPGPU-Sim uArch: Shader 13 finished CTA #2 (32774,0), 5 CTAs running
GPGPU-Sim uArch: core: 13, cta: 2 initialized @(32775,0)
GPGPU-Sim uArch: Shader 13 finished CTA #3 (32783,0), 5 CTAs running
GPGPU-Sim uArch: core: 13, cta: 3 initialized @(32784,0)
GPGPU-Sim uArch: Shader 3 finished CTA #0 (32821,0), 5 CTAs running
GPGPU-Sim uArch: core:  3, cta: 0 initialized @(32822,0)
GPGPU-Sim uArch: Shader 13 finished CTA #4 (32879,0), 5 CTAs running
GPGPU-Sim uArch: core: 13, cta: 4 initialized @(32880,0)
GPGPU-Sim uArch: Shader 13 finished CTA #5 (32912,0), 5 CTAs running
GPGPU-Sim uArch: core: 13, cta: 5 initialized @(32913,0)
GPGPU-Sim uArch: Shader 8 finished CTA #3 (32954,0), 5 CTAs running
GPGPU-Sim uArch: core:  8, cta: 3 initialized @(32955,0)
GPGPU-Sim uArch: Shader 8 finished CTA #4 (32973,0), 5 CTAs running
GPGPU-Sim uArch: core:  8, cta: 4 initialized @(32974,0)
GPGPU-Sim uArch: Shader 0 finished CTA #0 (32989,0), 5 CTAs running
GPGPU-Sim uArch: core:  0, cta: 0 initialized @(32990,0)
GPGPU-Sim uArch: Shader 4 finished CTA #5 (32994,0), 5 CTAs running
GPGPU-Sim uArch: core:  4, cta: 5 initialized @(32995,0)
GPGPU-Sim uArch: Shader 8 finished CTA #2 (33024,0), 5 CTAs running
GPGPU-Sim uArch: core:  8, cta: 2 initialized @(33025,0)
GPGPU-Sim uArch: Shader 8 finished CTA #0 (33058,0), 5 CTAs running
GPGPU-Sim uArch: core:  8, cta: 0 initialized @(33059,0)
GPGPU-Sim uArch: Shader 8 finished CTA #5 (33065,0), 5 CTAs running
GPGPU-Sim uArch: core:  8, cta: 5 initialized @(33066,0)
GPGPU-Sim uArch: Shader 0 finished CTA #5 (33110,0), 5 CTAs running
GPGPU-Sim uArch: core:  0, cta: 5 initialized @(33111,0)
GPGPU-Sim uArch: Shader 0 finished CTA #1 (33153,0), 5 CTAs running
GPGPU-Sim uArch: core:  0, cta: 1 initialized @(33154,0)
GPGPU-Sim uArch: Shader 0 finished CTA #2 (33162,0), 5 CTAs running
GPGPU-Sim uArch: core:  0, cta: 2 initialized @(33163,0)
GPGPU-Sim uArch: Shader 0 finished CTA #3 (33171,0), 5 CTAs running
GPGPU-Sim uArch: core:  0, cta: 3 initialized @(33172,0)
GPGPU-Sim uArch: Shader 4 finished CTA #0 (33185,0), 5 CTAs running
GPGPU-Sim uArch: core:  4, cta: 0 initialized @(33186,0)
GPGPU-Sim uArch: Shader 0 finished CTA #4 (33203,0), 5 CTAs running
GPGPU-Sim uArch: core:  0, cta: 4 initialized @(33204,0)
GPGPU-Sim uArch: Shader 4 finished CTA #1 (33212,0), 5 CTAs running
GPGPU-Sim uArch: core:  4, cta: 1 initialized @(33213,0)
GPGPU-Sim uArch: Shader 4 finished CTA #2 (33228,0), 5 CTAs running
GPGPU-Sim uArch: core:  4, cta: 2 initialized @(33229,0)
GPGPU-Sim uArch: Shader 4 finished CTA #3 (33252,0), 5 CTAs running
GPGPU-Sim uArch: core:  4, cta: 3 initialized @(33253,0)
GPGPU-Sim uArch: Shader 4 finished CTA #4 (33284,0), 5 CTAs running
GPGPU-Sim uArch: core:  4, cta: 4 initialized @(33285,0)
GPGPU-Sim uArch: Shader 11 finished CTA #2 (33355,0), 5 CTAs running
GPGPU-Sim uArch: core: 11, cta: 2 initialized @(33356,0)
GPGPU-Sim uArch: Shader 11 finished CTA #4 (33390,0), 5 CTAs running
GPGPU-Sim uArch: core: 11, cta: 4 initialized @(33391,0)
GPGPU-Sim uArch: Shader 11 finished CTA #5 (33402,0), 5 CTAs running
GPGPU-Sim uArch: core: 11, cta: 5 initialized @(33403,0)
GPGPU-Sim uArch: Shader 11 finished CTA #0 (33416,0), 5 CTAs running
GPGPU-Sim uArch: core: 11, cta: 0 initialized @(33417,0)
GPGPU-Sim uArch: Shader 11 finished CTA #3 (33449,0), 5 CTAs running
GPGPU-Sim uArch: core: 11, cta: 3 initialized @(33450,0)
GPGPU-Sim uArch: Shader 11 finished CTA #1 (33473,0), 5 CTAs running
GPGPU-Sim uArch: core: 11, cta: 1 initialized @(33474,0)
GPGPU-Sim uArch: Shader 1 finished CTA #5 (36114,0), 5 CTAs running
GPGPU-Sim uArch: core:  1, cta: 5 initialized @(36115,0)
GPGPU-Sim uArch: Shader 12 finished CTA #1 (39283,0), 5 CTAs running
GPGPU-Sim uArch: core: 12, cta: 1 initialized @(39284,0)
GPGPU-Sim uArch: Shader 12 finished CTA #2 (39463,0), 5 CTAs running
GPGPU-Sim uArch: core: 12, cta: 2 initialized @(39464,0)
GPGPU-Sim uArch: Shader 1 finished CTA #0 (39469,0), 5 CTAs running
GPGPU-Sim uArch: core:  1, cta: 0 initialized @(39470,0)
GPGPU-Sim uArch: Shader 6 finished CTA #3 (40463,0), 5 CTAs running
GPGPU-Sim uArch: core:  6, cta: 3 initialized @(40464,0)
GPGPU-Sim uArch: Shader 6 finished CTA #4 (40485,0), 5 CTAs running
GPGPU-Sim uArch: core:  6, cta: 4 initialized @(40486,0)
GPGPU-Sim uArch: Shader 6 finished CTA #5 (40539,0), 5 CTAs running
GPGPU-Sim uArch: core:  6, cta: 5 initialized @(40540,0)
GPGPU-Sim uArch: Shader 1 finished CTA #1 (40723,0), 5 CTAs running
GPGPU-Sim uArch: core:  1, cta: 1 initialized @(40724,0)
GPGPU-Sim uArch: Shader 1 finished CTA #2 (40848,0), 5 CTAs running
GPGPU-Sim uArch: core:  1, cta: 2 initialized @(40849,0)
GPGPU-Sim uArch: Shader 1 finished CTA #3 (40984,0), 5 CTAs running
GPGPU-Sim uArch: core:  1, cta: 3 initialized @(40985,0)
GPGPU-Sim uArch: Shader 1 finished CTA #4 (41025,0), 5 CTAs running
GPGPU-Sim uArch: core:  1, cta: 4 initialized @(41026,0)
GPGPU-Sim uArch: Shader 12 finished CTA #3 (41237,0), 5 CTAs running
GPGPU-Sim uArch: core: 12, cta: 3 initialized @(41238,0)
GPGPU-Sim uArch: Shader 9 finished CTA #4 (41328,0), 5 CTAs running
GPGPU-Sim uArch: core:  9, cta: 4 initialized @(41329,0)
GPGPU-Sim uArch: Shader 12 finished CTA #4 (41354,0), 5 CTAs running
GPGPU-Sim uArch: core: 12, cta: 4 initialized @(41355,0)
GPGPU-Sim uArch: Shader 9 finished CTA #5 (41416,0), 5 CTAs running
GPGPU-Sim uArch: core:  9, cta: 5 initialized @(41417,0)
GPGPU-Sim uArch: Shader 2 finished CTA #2 (41427,0), 5 CTAs running
GPGPU-Sim uArch: core:  2, cta: 2 initialized @(41428,0)
GPGPU-Sim uArch: Shader 2 finished CTA #3 (41436,0), 5 CTAs running
GPGPU-Sim uArch: core:  2, cta: 3 initialized @(41437,0)
GPGPU-Sim uArch: Shader 9 finished CTA #0 (41443,0), 5 CTAs running
GPGPU-Sim uArch: core:  9, cta: 0 initialized @(41444,0)
GPGPU-Sim uArch: Shader 2 finished CTA #4 (41445,0), 5 CTAs running
GPGPU-Sim uArch: core:  2, cta: 4 initialized @(41446,0)
GPGPU-Sim uArch: Shader 12 finished CTA #0 (41455,0), 5 CTAs running
GPGPU-Sim uArch: core: 12, cta: 0 initialized @(41456,0)
GPGPU-Sim uArch: Shader 12 finished CTA #5 (41471,0), 5 CTAs running
GPGPU-Sim uArch: core: 12, cta: 5 initialized @(41472,0)
GPGPU-Sim uArch: Shader 9 finished CTA #2 (41475,0), 5 CTAs running
GPGPU-Sim uArch: core:  9, cta: 2 initialized @(41476,0)
GPGPU-Sim uArch: Shader 9 finished CTA #1 (41503,0), 5 CTAs running
GPGPU-Sim uArch: core:  9, cta: 1 initialized @(41504,0)
GPGPU-Sim uArch: Shader 9 finished CTA #3 (41511,0), 5 CTAs running
GPGPU-Sim uArch: core:  9, cta: 3 initialized @(41512,0)
GPGPU-Sim uArch: Shader 2 finished CTA #5 (41517,0), 5 CTAs running
GPGPU-Sim uArch: Shader 2 finished CTA #0 (41517,0), 4 CTAs running
GPGPU-Sim uArch: core:  2, cta: 0 initialized @(41518,0)
GPGPU-Sim uArch: core:  2, cta: 5 initialized @(41519,0)
GPGPU-Sim uArch: Shader 2 finished CTA #1 (41557,0), 5 CTAs running
GPGPU-Sim uArch: core:  2, cta: 1 initialized @(41558,0)
GPGPU-Sim uArch: Shader 7 finished CTA #3 (41764,0), 5 CTAs running
GPGPU-Sim uArch: core:  7, cta: 3 initialized @(41765,0)
GPGPU-Sim uArch: Shader 6 finished CTA #0 (41803,0), 5 CTAs running
GPGPU-Sim uArch: core:  6, cta: 0 initialized @(41804,0)
GPGPU-Sim uArch: Shader 6 finished CTA #1 (41823,0), 5 CTAs running
GPGPU-Sim uArch: core:  6, cta: 1 initialized @(41824,0)
GPGPU-Sim uArch: Shader 6 finished CTA #2 (41876,0), 5 CTAs running
GPGPU-Sim uArch: core:  6, cta: 2 initialized @(41877,0)
GPGPU-Sim uArch: Shader 10 finished CTA #0 (41926,0), 5 CTAs running
GPGPU-Sim uArch: core: 10, cta: 0 initialized @(41927,0)
GPGPU-Sim uArch: Shader 10 finished CTA #3 (41940,0), 5 CTAs running
GPGPU-Sim uArch: core: 10, cta: 3 initialized @(41941,0)
GPGPU-Sim uArch: Shader 10 finished CTA #1 (41945,0), 5 CTAs running
GPGPU-Sim uArch: core: 10, cta: 1 initialized @(41946,0)
GPGPU-Sim uArch: Shader 10 finished CTA #4 (41953,0), 5 CTAs running
GPGPU-Sim uArch: Shader 10 finished CTA #5 (41953,0), 4 CTAs running
GPGPU-Sim uArch: core: 10, cta: 4 initialized @(41954,0)
GPGPU-Sim uArch: core: 10, cta: 5 initialized @(41955,0)
GPGPU-Sim uArch: Shader 7 finished CTA #4 (41974,0), 5 CTAs running
GPGPU-Sim uArch: core:  7, cta: 4 initialized @(41975,0)
GPGPU-Sim uArch: Shader 7 finished CTA #2 (41988,0), 5 CTAs running
GPGPU-Sim uArch: core:  7, cta: 2 initialized @(41989,0)
GPGPU-Sim uArch: Shader 7 finished CTA #5 (42025,0), 5 CTAs running
GPGPU-Sim uArch: Shader 7 finished CTA #0 (42025,0), 4 CTAs running
GPGPU-Sim uArch: core:  7, cta: 0 initialized @(42026,0)
GPGPU-Sim uArch: core:  7, cta: 5 initialized @(42027,0)
GPGPU-Sim uArch: Shader 7 finished CTA #1 (42057,0), 5 CTAs running
GPGPU-Sim uArch: core:  7, cta: 1 initialized @(42058,0)
GPGPU-Sim uArch: Shader 10 finished CTA #2 (42122,0), 5 CTAs running
GPGPU-Sim uArch: core: 10, cta: 2 initialized @(42123,0)
GPGPU-Sim uArch: Shader 5 finished CTA #0 (42258,0), 5 CTAs running
GPGPU-Sim uArch: core:  5, cta: 0 initialized @(42259,0)
GPGPU-Sim uArch: Shader 5 finished CTA #1 (42285,0), 5 CTAs running
GPGPU-Sim uArch: core:  5, cta: 1 initialized @(42286,0)
GPGPU-Sim uArch: Shader 5 finished CTA #2 (42357,0), 5 CTAs running
GPGPU-Sim uArch: core:  5, cta: 2 initialized @(42358,0)
GPGPU-Sim uArch: Shader 5 finished CTA #3 (42366,0), 5 CTAs running
GPGPU-Sim uArch: core:  5, cta: 3 initialized @(42367,0)
GPGPU-Sim uArch: Shader 5 finished CTA #4 (42398,0), 5 CTAs running
GPGPU-Sim uArch: Shader 5 finished CTA #5 (42398,0), 4 CTAs running
GPGPU-Sim uArch: core:  5, cta: 4 initialized @(42399,0)
GPGPU-Sim uArch: core:  5, cta: 5 initialized @(42400,0)
GPGPU-Sim uArch: Shader 13 finished CTA #0 (42458,0), 5 CTAs running
GPGPU-Sim uArch: core: 13, cta: 0 initialized @(42459,0)
GPGPU-Sim uArch: Shader 13 finished CTA #1 (42499,0), 5 CTAs running
GPGPU-Sim uArch: core: 13, cta: 1 initialized @(42500,0)
GPGPU-Sim uArch: Shader 13 finished CTA #2 (42610,0), 5 CTAs running
GPGPU-Sim uArch: core: 13, cta: 2 initialized @(42611,0)
GPGPU-Sim uArch: Shader 3 finished CTA #3 (42665,0), 5 CTAs running
GPGPU-Sim uArch: core:  3, cta: 3 initialized @(42666,0)
GPGPU-Sim uArch: Shader 3 finished CTA #4 (42692,0), 5 CTAs running
GPGPU-Sim uArch: core:  3, cta: 4 initialized @(42693,0)
GPGPU-Sim uArch: Shader 3 finished CTA #5 (42724,0), 5 CTAs running
GPGPU-Sim uArch: core:  3, cta: 5 initialized @(42725,0)
GPGPU-Sim uArch: Shader 13 finished CTA #5 (42732,0), 5 CTAs running
GPGPU-Sim uArch: core: 13, cta: 5 initialized @(42733,0)
GPGPU-Sim uArch: Shader 13 finished CTA #3 (42767,0), 5 CTAs running
GPGPU-Sim uArch: core: 13, cta: 3 initialized @(42768,0)
GPGPU-Sim uArch: Shader 13 finished CTA #4 (42783,0), 5 CTAs running
GPGPU-Sim uArch: core: 13, cta: 4 initialized @(42784,0)
GPGPU-Sim uArch: Shader 8 finished CTA #1 (42814,0), 5 CTAs running
GPGPU-Sim uArch: core:  8, cta: 1 initialized @(42815,0)
GPGPU-Sim uArch: Shader 3 finished CTA #1 (42843,0), 5 CTAs running
GPGPU-Sim uArch: core:  3, cta: 1 initialized @(42844,0)
GPGPU-Sim uArch: Shader 3 finished CTA #2 (42852,0), 5 CTAs running
GPGPU-Sim uArch: core:  3, cta: 2 initialized @(42853,0)
GPGPU-Sim uArch: Shader 8 finished CTA #2 (42899,0), 5 CTAs running
GPGPU-Sim uArch: core:  8, cta: 2 initialized @(42900,0)
GPGPU-Sim uArch: Shader 8 finished CTA #3 (42923,0), 5 CTAs running
GPGPU-Sim uArch: core:  8, cta: 3 initialized @(42924,0)
GPGPU-Sim uArch: Shader 3 finished CTA #0 (42930,0), 5 CTAs running
GPGPU-Sim uArch: core:  3, cta: 0 initialized @(42931,0)
GPGPU-Sim uArch: Shader 8 finished CTA #4 (42996,0), 5 CTAs running
GPGPU-Sim uArch: core:  8, cta: 4 initialized @(42997,0)
GPGPU-Sim uArch: Shader 8 finished CTA #5 (43073,0), 5 CTAs running
GPGPU-Sim uArch: core:  8, cta: 5 initialized @(43074,0)
GPGPU-Sim uArch: Shader 8 finished CTA #0 (43082,0), 5 CTAs running
GPGPU-Sim uArch: core:  8, cta: 0 initialized @(43083,0)
GPGPU-Sim uArch: Shader 4 finished CTA #5 (43103,0), 5 CTAs running
GPGPU-Sim uArch: core:  4, cta: 5 initialized @(43104,0)
GPGPU-Sim uArch: Shader 4 finished CTA #0 (43122,0), 5 CTAs running
GPGPU-Sim uArch: core:  4, cta: 0 initialized @(43123,0)
GPGPU-Sim uArch: Shader 0 finished CTA #3 (43133,0), 5 CTAs running
GPGPU-Sim uArch: core:  0, cta: 3 initialized @(43134,0)
GPGPU-Sim uArch: Shader 4 finished CTA #1 (43138,0), 5 CTAs running
GPGPU-Sim uArch: core:  4, cta: 1 initialized @(43139,0)
GPGPU-Sim uArch: Shader 4 finished CTA #2 (43162,0), 5 CTAs running
GPGPU-Sim uArch: core:  4, cta: 2 initialized @(43163,0)
GPGPU-Sim uArch: Shader 0 finished CTA #4 (43199,0), 5 CTAs running
GPGPU-Sim uArch: core:  0, cta: 4 initialized @(43200,0)
GPGPU-Sim uArch: Shader 0 finished CTA #0 (43208,0), 5 CTAs running
GPGPU-Sim uArch: core:  0, cta: 0 initialized @(43209,0)
GPGPU-Sim uArch: Shader 1 finished CTA #5 (43225,0), 5 CTAs running
GPGPU-Sim uArch: core:  1, cta: 5 initialized @(43226,0)
GPGPU-Sim uArch: Shader 11 finished CTA #5 (43239,0), 5 CTAs running
GPGPU-Sim uArch: core: 11, cta: 5 initialized @(43240,0)
GPGPU-Sim uArch: Shader 4 finished CTA #3 (43245,0), 5 CTAs running
GPGPU-Sim uArch: core:  4, cta: 3 initialized @(43246,0)
GPGPU-Sim uArch: Shader 0 finished CTA #5 (43258,0), 5 CTAs running
GPGPU-Sim uArch: core:  0, cta: 5 initialized @(43259,0)
GPGPU-Sim uArch: Shader 4 finished CTA #4 (43265,0), 5 CTAs running
GPGPU-Sim uArch: core:  4, cta: 4 initialized @(43266,0)
GPGPU-Sim uArch: Shader 0 finished CTA #1 (43266,0), 5 CTAs running
GPGPU-Sim uArch: Shader 0 finished CTA #2 (43266,0), 4 CTAs running
GPGPU-Sim uArch: Shader 11 finished CTA #4 (43266,0), 5 CTAs running
GPGPU-Sim uArch: core: 11, cta: 4 initialized @(43267,0)
GPGPU-Sim uArch: core:  0, cta: 1 initialized @(43267,0)
GPGPU-Sim uArch: core:  0, cta: 2 initialized @(43268,0)
GPGPU-Sim uArch: Shader 11 finished CTA #0 (43361,0), 5 CTAs running
GPGPU-Sim uArch: core: 11, cta: 0 initialized @(43362,0)
GPGPU-Sim uArch: Shader 11 finished CTA #1 (43370,0), 5 CTAs running
GPGPU-Sim uArch: core: 11, cta: 1 initialized @(43371,0)
GPGPU-Sim uArch: Shader 11 finished CTA #2 (43384,0), 5 CTAs running
GPGPU-Sim uArch: Shader 11 finished CTA #3 (43384,0), 4 CTAs running
GPGPU-Sim uArch: core: 11, cta: 2 initialized @(43385,0)
GPGPU-Sim uArch: core: 11, cta: 3 initialized @(43386,0)
GPGPU-Sim uArch: Shader 12 finished CTA #1 (47277,0), 5 CTAs running
GPGPU-Sim uArch: core: 12, cta: 1 initialized @(47278,0)
GPGPU-Sim uArch: Shader 12 finished CTA #2 (47377,0), 5 CTAs running
GPGPU-Sim uArch: core: 12, cta: 2 initialized @(47378,0)
GPGPU-Sim uArch: Shader 1 finished CTA #0 (48459,0), 5 CTAs running
GPGPU-Sim uArch: core:  1, cta: 0 initialized @(48460,0)
GPGPU-Sim uArch: Shader 9 finished CTA #4 (49209,0), 5 CTAs running
GPGPU-Sim uArch: core:  9, cta: 4 initialized @(49210,0)
GPGPU-Sim uArch: Shader 6 finished CTA #3 (49291,0), 5 CTAs running
GPGPU-Sim uArch: core:  6, cta: 3 initialized @(49292,0)
GPGPU-Sim uArch: Shader 6 finished CTA #4 (49605,0), 5 CTAs running
GPGPU-Sim uArch: core:  6, cta: 4 initialized @(49606,0)
GPGPU-Sim uArch: Shader 6 finished CTA #5 (49697,0), 5 CTAs running
GPGPU-Sim uArch: core:  6, cta: 5 initialized @(49698,0)
GPGPU-Sim uArch: Shader 12 finished CTA #4 (49867,0), 5 CTAs running
GPGPU-Sim uArch: core: 12, cta: 4 initialized @(49868,0)
GPGPU-Sim uArch: Shader 12 finished CTA #3 (49903,0), 5 CTAs running
GPGPU-Sim uArch: core: 12, cta: 3 initialized @(49904,0)
GPGPU-Sim uArch: Shader 1 finished CTA #1 (49942,0), 5 CTAs running
GPGPU-Sim uArch: core:  1, cta: 1 initialized @(49943,0)
GPGPU-Sim uArch: Shader 12 finished CTA #5 (50032,0), 5 CTAs running
GPGPU-Sim uArch: core: 12, cta: 5 initialized @(50033,0)
GPGPU-Sim uArch: Shader 9 finished CTA #5 (50035,0), 5 CTAs running
GPGPU-Sim uArch: core:  9, cta: 5 initialized @(50036,0)
GPGPU-Sim uArch: Shader 12 finished CTA #0 (50076,0), 5 CTAs running
GPGPU-Sim uArch: core: 12, cta: 0 initialized @(50077,0)
GPGPU-Sim uArch: Shader 1 finished CTA #2 (50123,0), 5 CTAs running
GPGPU-Sim uArch: core:  1, cta: 2 initialized @(50124,0)
GPGPU-Sim uArch: Shader 1 finished CTA #3 (50135,0), 5 CTAs running
GPGPU-Sim uArch: core:  1, cta: 3 initialized @(50136,0)
GPGPU-Sim uArch: Shader 1 finished CTA #4 (50166,0), 5 CTAs running
GPGPU-Sim uArch: core:  1, cta: 4 initialized @(50167,0)
GPGPU-Sim uArch: Shader 9 finished CTA #0 (50502,0), 5 CTAs running
GPGPU-Sim uArch: core:  9, cta: 0 initialized @(50503,0)
GPGPU-Sim uArch: Shader 9 finished CTA #1 (50537,0), 5 CTAs running
GPGPU-Sim uArch: Shader 9 finished CTA #2 (50537,0), 4 CTAs running
GPGPU-Sim uArch: core:  9, cta: 1 initialized @(50538,0)
GPGPU-Sim uArch: core:  9, cta: 2 initialized @(50539,0)
GPGPU-Sim uArch: Shader 9 finished CTA #3 (50564,0), 5 CTAs running
GPGPU-Sim uArch: core:  9, cta: 3 initialized @(50565,0)
GPGPU-Sim uArch: Shader 6 finished CTA #0 (50836,0), 5 CTAs running
GPGPU-Sim uArch: core:  6, cta: 0 initialized @(50837,0)
GPGPU-Sim uArch: Shader 6 finished CTA #1 (50871,0), 5 CTAs running
GPGPU-Sim uArch: core:  6, cta: 1 initialized @(50872,0)
GPGPU-Sim uArch: Shader 6 finished CTA #2 (50942,0), 5 CTAs running
GPGPU-Sim uArch: core:  6, cta: 2 initialized @(50943,0)
GPGPU-Sim uArch: Shader 2 finished CTA #2 (51029,0), 5 CTAs running
GPGPU-Sim uArch: core:  2, cta: 2 initialized @(51030,0)
GPGPU-Sim uArch: Shader 2 finished CTA #3 (51315,0), 5 CTAs running
GPGPU-Sim uArch: core:  2, cta: 3 initialized @(51316,0)
GPGPU-Sim uArch: Shader 2 finished CTA #4 (51350,0), 5 CTAs running
GPGPU-Sim uArch: core:  2, cta: 4 initialized @(51351,0)
GPGPU-Sim uArch: Shader 1 finished CTA #5 (51406,0), 5 CTAs running
GPGPU-Sim uArch: core:  1, cta: 5 initialized @(51407,0)
GPGPU-Sim uArch: Shader 2 finished CTA #5 (51409,0), 5 CTAs running
GPGPU-Sim uArch: core:  2, cta: 5 initialized @(51410,0)
GPGPU-Sim uArch: Shader 2 finished CTA #0 (51425,0), 5 CTAs running
GPGPU-Sim uArch: core:  2, cta: 0 initialized @(51426,0)
GPGPU-Sim uArch: Shader 2 finished CTA #1 (51448,0), 5 CTAs running
GPGPU-Sim uArch: core:  2, cta: 1 initialized @(51449,0)
GPGPU-Sim uArch: Shader 7 finished CTA #4 (51636,0), 5 CTAs running
GPGPU-Sim uArch: core:  7, cta: 4 initialized @(51637,0)
GPGPU-Sim uArch: Shader 7 finished CTA #5 (51650,0), 5 CTAs running
GPGPU-Sim uArch: core:  7, cta: 5 initialized @(51651,0)
GPGPU-Sim uArch: Shader 7 finished CTA #0 (51663,0), 5 CTAs running
GPGPU-Sim uArch: core:  7, cta: 0 initialized @(51664,0)
GPGPU-Sim uArch: Shader 7 finished CTA #2 (51759,0), 5 CTAs running
GPGPU-Sim uArch: Shader 7 finished CTA #3 (51759,0), 4 CTAs running
GPGPU-Sim uArch: core:  7, cta: 2 initialized @(51760,0)
GPGPU-Sim uArch: core:  7, cta: 3 initialized @(51761,0)
GPGPU-Sim uArch: Shader 7 finished CTA #1 (51781,0), 5 CTAs running
GPGPU-Sim uArch: core:  7, cta: 1 initialized @(51782,0)
GPGPU-Sim uArch: Shader 10 finished CTA #2 (52292,0), 5 CTAs running
GPGPU-Sim uArch: core: 10, cta: 2 initialized @(52293,0)
GPGPU-Sim uArch: Shader 10 finished CTA #3 (52371,0), 5 CTAs running
GPGPU-Sim uArch: core: 10, cta: 3 initialized @(52372,0)
GPGPU-Sim uArch: Shader 3 finished CTA #2 (52383,0), 5 CTAs running
GPGPU-Sim uArch: core:  3, cta: 2 initialized @(52384,0)
GPGPU-Sim uArch: Shader 3 finished CTA #3 (52392,0), 5 CTAs running
GPGPU-Sim uArch: core:  3, cta: 3 initialized @(52393,0)
GPGPU-Sim uArch: Shader 10 finished CTA #4 (52396,0), 5 CTAs running
GPGPU-Sim uArch: core: 10, cta: 4 initialized @(52397,0)
GPGPU-Sim uArch: Shader 10 finished CTA #5 (52412,0), 5 CTAs running
GPGPU-Sim uArch: core: 10, cta: 5 initialized @(52413,0)
GPGPU-Sim uArch: Shader 10 finished CTA #0 (52436,0), 5 CTAs running
GPGPU-Sim uArch: Shader 10 finished CTA #1 (52436,0), 4 CTAs running
GPGPU-Sim uArch: core: 10, cta: 0 initialized @(52437,0)
GPGPU-Sim uArch: core: 10, cta: 1 initialized @(52438,0)
GPGPU-Sim uArch: Shader 3 finished CTA #1 (52529,0), 5 CTAs running
GPGPU-Sim uArch: core:  3, cta: 1 initialized @(52530,0)
GPGPU-Sim uArch: Shader 3 finished CTA #4 (52548,0), 5 CTAs running
GPGPU-Sim uArch: core:  3, cta: 4 initialized @(52549,0)
GPGPU-Sim uArch: Shader 5 finished CTA #2 (52551,0), 5 CTAs running
GPGPU-Sim uArch: core:  5, cta: 2 initialized @(52552,0)
GPGPU-Sim uArch: Shader 3 finished CTA #5 (52564,0), 5 CTAs running
GPGPU-Sim uArch: core:  3, cta: 5 initialized @(52565,0)
GPGPU-Sim uArch: Shader 5 finished CTA #5 (52578,0), 5 CTAs running
GPGPU-Sim uArch: core:  5, cta: 5 initialized @(52579,0)
GPGPU-Sim uArch: Shader 5 finished CTA #3 (52586,0), 5 CTAs running
GPGPU-Sim uArch: core:  5, cta: 3 initialized @(52587,0)
GPGPU-Sim uArch: Shader 3 finished CTA #0 (52612,0), 5 CTAs running
GPGPU-Sim uArch: core:  3, cta: 0 initialized @(52613,0)
GPGPU-Sim uArch: Shader 5 finished CTA #0 (52618,0), 5 CTAs running
GPGPU-Sim uArch: core:  5, cta: 0 initialized @(52619,0)
GPGPU-Sim uArch: Shader 8 finished CTA #1 (52623,0), 5 CTAs running
GPGPU-Sim uArch: core:  8, cta: 1 initialized @(52624,0)
GPGPU-Sim uArch: Shader 5 finished CTA #1 (52648,0), 5 CTAs running
GPGPU-Sim uArch: core:  5, cta: 1 initialized @(52649,0)
GPGPU-Sim uArch: Shader 5 finished CTA #4 (52658,0), 5 CTAs running
GPGPU-Sim uArch: core:  5, cta: 4 initialized @(52659,0)
GPGPU-Sim uArch: Shader 13 finished CTA #1 (52683,0), 5 CTAs running
GPGPU-Sim uArch: core: 13, cta: 1 initialized @(52684,0)
GPGPU-Sim uArch: Shader 13 finished CTA #2 (52710,0), 5 CTAs running
GPGPU-Sim uArch: core: 13, cta: 2 initialized @(52711,0)
GPGPU-Sim uArch: Shader 13 finished CTA #3 (52726,0), 5 CTAs running
GPGPU-Sim uArch: core: 13, cta: 3 initialized @(52727,0)
GPGPU-Sim uArch: Shader 13 finished CTA #4 (52750,0), 5 CTAs running
GPGPU-Sim uArch: Shader 13 finished CTA #5 (52750,0), 4 CTAs running
GPGPU-Sim uArch: Shader 13 finished CTA #0 (52750,0), 3 CTAs running
GPGPU-Sim uArch: core: 13, cta: 0 initialized @(52751,0)
GPGPU-Sim uArch: core: 13, cta: 4 initialized @(52752,0)
GPGPU-Sim uArch: core: 13, cta: 5 initialized @(52753,0)
GPGPU-Sim uArch: Shader 8 finished CTA #2 (52836,0), 5 CTAs running
GPGPU-Sim uArch: core:  8, cta: 2 initialized @(52837,0)
GPGPU-Sim uArch: Shader 8 finished CTA #5 (52855,0), 5 CTAs running
GPGPU-Sim uArch: core:  8, cta: 5 initialized @(52856,0)
GPGPU-Sim uArch: Shader 8 finished CTA #3 (52863,0), 5 CTAs running
GPGPU-Sim uArch: core:  8, cta: 3 initialized @(52864,0)
GPGPU-Sim uArch: Shader 8 finished CTA #0 (52871,0), 5 CTAs running
GPGPU-Sim uArch: core:  8, cta: 0 initialized @(52872,0)
GPGPU-Sim uArch: Shader 8 finished CTA #4 (52919,0), 5 CTAs running
GPGPU-Sim uArch: core:  8, cta: 4 initialized @(52920,0)
GPGPU-Sim uArch: Shader 0 finished CTA #2 (53006,0), 5 CTAs running
GPGPU-Sim uArch: core:  0, cta: 2 initialized @(53007,0)
GPGPU-Sim uArch: Shader 0 finished CTA #0 (53094,0), 5 CTAs running
GPGPU-Sim uArch: core:  0, cta: 0 initialized @(53095,0)
GPGPU-Sim uArch: Shader 0 finished CTA #3 (53129,0), 5 CTAs running
GPGPU-Sim uArch: core:  0, cta: 3 initialized @(53130,0)
GPGPU-Sim uArch: Shader 0 finished CTA #4 (53145,0), 5 CTAs running
GPGPU-Sim uArch: core:  0, cta: 4 initialized @(53146,0)
GPGPU-Sim uArch: Shader 0 finished CTA #5 (53200,0), 5 CTAs running
GPGPU-Sim uArch: core:  0, cta: 5 initialized @(53201,0)
GPGPU-Sim uArch: Shader 4 finished CTA #3 (53230,0), 5 CTAs running
GPGPU-Sim uArch: core:  4, cta: 3 initialized @(53231,0)
GPGPU-Sim uArch: Shader 4 finished CTA #1 (53239,0), 5 CTAs running
GPGPU-Sim uArch: core:  4, cta: 1 initialized @(53240,0)
GPGPU-Sim uArch: Shader 11 finished CTA #5 (53242,0), 5 CTAs running
GPGPU-Sim uArch: core: 11, cta: 5 initialized @(53243,0)
GPGPU-Sim uArch: Shader 4 finished CTA #5 (53256,0), 5 CTAs running
GPGPU-Sim uArch: core:  4, cta: 5 initialized @(53257,0)
GPGPU-Sim uArch: Shader 4 finished CTA #2 (53264,0), 5 CTAs running
GPGPU-Sim uArch: core:  4, cta: 2 initialized @(53265,0)
GPGPU-Sim uArch: Shader 4 finished CTA #0 (53280,0), 5 CTAs running
GPGPU-Sim uArch: core:  4, cta: 0 initialized @(53281,0)
GPGPU-Sim uArch: Shader 0 finished CTA #1 (53317,0), 5 CTAs running
GPGPU-Sim uArch: core:  0, cta: 1 initialized @(53318,0)
GPGPU-Sim uArch: Shader 11 finished CTA #0 (53393,0), 5 CTAs running
[...]
GPGPU-Sim uArch: Shader 10 finished CTA #2 (160576,451279), 2 CTAs running
GPGPU-Sim uArch: Shader 5 finished CTA #4 (160640,451279), 2 CTAs running
GPGPU-Sim uArch: Shader 5 finished CTA #0 (160646,451279), 1 CTAs running
GPGPU-Sim uArch: Shader 0 finished CTA #3 (160682,451279), 3 CTAs running
GPGPU-Sim uArch: Shader 10 finished CTA #3 (160694,451279), 1 CTAs running
GPGPU-Sim uArch: Shader 0 finished CTA #4 (160704,451279), 2 CTAs running
GPGPU-Sim uArch: Shader 0 finished CTA #0 (160726,451279), 1 CTAs running
GPGPU-Sim uArch: Shader 11 finished CTA #3 (160844,451279), 4 CTAs running
GPGPU-Sim uArch: Shader 0 finished CTA #1 (160928,451279), 0 CTAs running
GPGPU-Sim uArch: Shader 0 empty (release kernel 2 '_Z24bpnn_adjust_weights_cudaPfiS_iS_S_').
GPGPU-Sim uArch: Shader 10 finished CTA #0 (160942,451279), 0 CTAs running
GPGPU-Sim uArch: Shader 10 empty (release kernel 2 '_Z24bpnn_adjust_weights_cudaPfiS_iS_S_').
GPGPU-Sim uArch: Shader 6 finished CTA #0 (160948,451279), 4 CTAs running
GPGPU-Sim uArch: Shader 5 finished CTA #2 (160952,451279), 0 CTAs running
GPGPU-Sim uArch: Shader 5 empty (release kernel 2 '_Z24bpnn_adjust_weights_cudaPfiS_iS_S_').
GPGPU-Sim uArch: Shader 1 finished CTA #1 (160992,451279), 3 CTAs running
GPGPU-Sim uArch: Shader 2 finished CTA #2 (161012,451279), 0 CTAs running
GPGPU-Sim uArch: Shader 2 empty (release kernel 2 '_Z24bpnn_adjust_weights_cudaPfiS_iS_S_').
GPGPU-Sim uArch: Shader 1 finished CTA #0 (161066,451279), 2 CTAs running
GPGPU-Sim uArch: Shader 3 finished CTA #1 (161067,451279), 3 CTAs running
GPGPU-Sim uArch: Shader 11 finished CTA #4 (161098,451279), 3 CTAs running
GPGPU-Sim uArch: Shader 6 finished CTA #1 (161110,451279), 3 CTAs running
GPGPU-Sim uArch: Shader 6 finished CTA #2 (161126,451279), 2 CTAs running
GPGPU-Sim uArch: Shader 11 finished CTA #2 (161170,451279), 2 CTAs running
GPGPU-Sim uArch: Shader 3 finished CTA #4 (161173,451279), 2 CTAs running
GPGPU-Sim uArch: Shader 11 finished CTA #1 (161188,451279), 1 CTAs running
GPGPU-Sim uArch: Shader 4 finished CTA #4 (161190,451279), 2 CTAs running
GPGPU-Sim uArch: Shader 1 finished CTA #3 (161194,451279), 1 CTAs running
GPGPU-Sim uArch: Shader 7 finished CTA #2 (161221,451279), 4 CTAs running
GPGPU-Sim uArch: Shader 1 finished CTA #2 (161278,451279), 0 CTAs running
GPGPU-Sim uArch: Shader 1 empty (release kernel 2 '_Z24bpnn_adjust_weights_cudaPfiS_iS_S_').
GPGPU-Sim uArch: Shader 6 finished CTA #4 (161307,451279), 1 CTAs running
GPGPU-Sim uArch: Shader 4 finished CTA #3 (161310,451279), 1 CTAs running
GPGPU-Sim uArch: Shader 7 finished CTA #0 (161315,451279), 3 CTAs running
GPGPU-Sim uArch: Shader 11 finished CTA #0 (161324,451279), 0 CTAs running
GPGPU-Sim uArch: Shader 11 empty (release kernel 2 '_Z24bpnn_adjust_weights_cudaPfiS_iS_S_').
GPGPU-Sim uArch: Shader 6 finished CTA #3 (161330,451279), 0 CTAs running
GPGPU-Sim uArch: Shader 6 empty (release kernel 2 '_Z24bpnn_adjust_weights_cudaPfiS_iS_S_').
GPGPU-Sim uArch: Shader 8 finished CTA #2 (161330,451279), 3 CTAs running
GPGPU-Sim uArch: Shader 4 finished CTA #2 (161332,451279), 0 CTAs running
GPGPU-Sim uArch: Shader 4 empty (release kernel 2 '_Z24bpnn_adjust_weights_cudaPfiS_iS_S_').
GPGPU-Sim uArch: Shader 7 finished CTA #3 (161334,451279), 2 CTAs running
GPGPU-Sim uArch: Shader 3 finished CTA #2 (161341,451279), 1 CTAs running
GPGPU-Sim uArch: Shader 7 finished CTA #4 (161353,451279), 1 CTAs running
GPGPU-Sim uArch: Shader 3 finished CTA #0 (161371,451279), 0 CTAs running
GPGPU-Sim uArch: Shader 3 empty (release kernel 2 '_Z24bpnn_adjust_weights_cudaPfiS_iS_S_').
GPGPU-Sim uArch: Shader 7 finished CTA #1 (161373,451279), 0 CTAs running
GPGPU-Sim uArch: Shader 7 empty (release kernel 2 '_Z24bpnn_adjust_weights_cudaPfiS_iS_S_').
GPGPU-Sim uArch: Shader 8 finished CTA #1 (161427,451279), 2 CTAs running
GPGPU-Sim uArch: Shader 8 finished CTA #4 (161453,451279), 1 CTAs running
GPGPU-Sim uArch: Shader 8 finished CTA #0 (161515,451279), 0 CTAs running
GPGPU-Sim uArch: Shader 8 empty (release kernel 2 '_Z24bpnn_adjust_weights_cudaPfiS_iS_S_').
GPGPU-Sim uArch: GPU detected kernel '_Z24bpnn_adjust_weights_cudaPfiS_iS_S_' finished on shader 8.
kernel_name = _Z24bpnn_adjust_weights_cudaPfiS_iS_S_ 
kernel_launch_uid = 2 
gpu_sim_cycle = 161516
gpu_sim_insn = 59834720
gpu_ipc =     370.4569
gpu_tot_sim_cycle = 612795
gpu_tot_sim_insn = 329974112
gpu_tot_ipc =     538.4739
gpu_tot_issued_cta = 0
gpu_stall_dramfull = 215831
gpu_stall_icnt2sh    = 940819
gpu_total_sim_rate=901568

========= Core cache stats =========
L1I_cache:
	L1I_total_cache_accesses = 6145055
	L1I_total_cache_misses = 5139
	L1I_total_cache_miss_rate = 0.0008
	L1I_total_cache_pending_hits = 0
	L1I_total_cache_reservation_fails = 18840
L1D_cache:
	L1D_cache_core[0]: Access = 46762, Miss = 17364, Miss_rate = 0.371, Pending_hits = 6553, Reservation_fails = 111831
	L1D_cache_core[1]: Access = 49268, Miss = 18328, Miss_rate = 0.372, Pending_hits = 7445, Reservation_fails = 103774
	L1D_cache_core[2]: Access = 45206, Miss = 16823, Miss_rate = 0.372, Pending_hits = 6060, Reservation_fails = 116642
	L1D_cache_core[3]: Access = 45877, Miss = 16846, Miss_rate = 0.367, Pending_hits = 6267, Reservation_fails = 124151
	L1D_cache_core[4]: Access = 46721, Miss = 17358, Miss_rate = 0.372, Pending_hits = 6639, Reservation_fails = 107463
	L1D_cache_core[5]: Access = 47363, Miss = 17542, Miss_rate = 0.370, Pending_hits = 6814, Reservation_fails = 109050
	L1D_cache_core[6]: Access = 47141, Miss = 17601, Miss_rate = 0.373, Pending_hits = 6804, Reservation_fails = 102980
	L1D_cache_core[7]: Access = 47409, Miss = 17569, Miss_rate = 0.371, Pending_hits = 6751, Reservation_fails = 110808
	L1D_cache_core[8]: Access = 48195, Miss = 17840, Miss_rate = 0.370, Pending_hits = 6936, Reservation_fails = 113444
	L1D_cache_core[9]: Access = 45758, Miss = 16865, Miss_rate = 0.369, Pending_hits = 6318, Reservation_fails = 115449
	L1D_cache_core[10]: Access = 46932, Miss = 17425, Miss_rate = 0.371, Pending_hits = 6724, Reservation_fails = 113333
	L1D_cache_core[11]: Access = 48546, Miss = 17830, Miss_rate = 0.367, Pending_hits = 6955, Reservation_fails = 114289
	L1D_cache_core[12]: Access = 49257, Miss = 18187, Miss_rate = 0.369, Pending_hits = 7343, Reservation_fails = 100081
	L1D_cache_core[13]: Access = 47076, Miss = 17450, Miss_rate = 0.371, Pending_hits = 6728, Reservation_fails = 110454
	L1D_total_cache_accesses = 661511
	L1D_total_cache_misses = 245028
	L1D_total_cache_miss_rate = 0.3704
	L1D_total_cache_pending_hits = 94337
	L1D_total_cache_reservation_fails = 1553749
	L1D_cache_data_port_util = 0.038
	L1D_cache_fill_port_util = 0.019
L1C_cache:
	L1C_total_cache_accesses = 0
	L1C_total_cache_misses = 0
	L1C_total_cache_pending_hits = 0
	L1C_total_cache_reservation_fails = 0
L1T_cache:
	L1T_total_cache_accesses = 0
	L1T_total_cache_misses = 0
	L1T_total_cache_pending_hits = 0
	L1T_total_cache_reservation_fails = 0

Total_core_cache_stats:
	Total_core_cache_stats_breakdown[GLOBAL_ACC_R][HIT] = 174295
	Total_core_cache_stats_breakdown[GLOBAL_ACC_R][HIT_RESERVED] = 94295
	Total_core_cache_stats_breakdown[GLOBAL_ACC_R][MISS] = 163543
	Total_core_cache_stats_breakdown[GLOBAL_ACC_R][RESERVATION_FAIL] = 1123525
	Total_core_cache_stats_breakdown[GLOBAL_ACC_W][HIT] = 147851
	Total_core_cache_stats_breakdown[GLOBAL_ACC_W][HIT_RESERVED] = 42
	Total_core_cache_stats_breakdown[GLOBAL_ACC_W][MISS] = 81485
	Total_core_cache_stats_breakdown[GLOBAL_ACC_W][RESERVATION_FAIL] = 430224
	Total_core_cache_stats_breakdown[INST_ACC_R][HIT] = 6139916
	Total_core_cache_stats_breakdown[INST_ACC_R][MISS] = 5139
	Total_core_cache_stats_breakdown[INST_ACC_R][RESERVATION_FAIL] = 18840
Shader 0 warp_id issue ditsribution:
warp_id:
0, 1, 2, 3, 4, 5, 6, 7, 8, 9, 10, 11, 12, 13, 14, 15, 16, 17, 18, 19, 20, 21, 22, 23, 24, 25, 26, 27, 28, 29, 30, 31, 32, 33, 34, 35, 36, 37, 38, 39, 40, 41, 42, 43, 44, 45, 46, 47, 
distro:
18946, 17329, 17868, 17329, 18407, 17329, 17868, 17329, 19004, 17387, 17926, 17387, 18465, 17387, 17926, 17387, 18946, 17329, 17868, 17329, 18407, 17329, 17868, 17329, 18888, 17271, 17810, 17271, 18349, 17271, 17810, 17271, 18830, 17213, 17752, 17213, 18291, 17213, 17752, 17213, 15582, 13965, 14504, 13965, 15043, 13965, 14504, 13965, 
gpgpu_n_tot_thrd_icount = 369754848
gpgpu_n_tot_w_icount = 11554839
gpgpu_n_stall_shd_mem = 1789269
gpgpu_n_mem_read_local = 0
gpgpu_n_mem_write_local = 0
gpgpu_n_mem_read_global = 163543
gpgpu_n_mem_write_global = 229378
gpgpu_n_mem_texture = 0
gpgpu_n_mem_const = 0
gpgpu_n_load_insn  = 8454224
gpgpu_n_store_insn = 3211296
gpgpu_n_shmem_insn = 6356992
gpgpu_n_tex_insn = 0
gpgpu_n_const_mem_insn = 0
gpgpu_n_param_mem_insn = 0
gpgpu_n_shmem_bkconflict = 0
gpgpu_n_cache_bkconflict = 0
gpgpu_n_intrawarp_mshr_merge = 0
gpgpu_n_cmem_portconflict = 0
gpgpu_stall_shd_mem[c_mem][bk_conf] = 0
gpgpu_stall_shd_mem[c_mem][mshr_rc] = 0
gpgpu_stall_shd_mem[c_mem][icnt_rc] = 0
gpgpu_stall_shd_mem[c_mem][data_port_stall] = 0
gpgpu_stall_shd_mem[t_mem][mshr_rc] = 0
gpgpu_stall_shd_mem[t_mem][icnt_rc] = 0
gpgpu_stall_shd_mem[t_mem][data_port_stall] = 0
gpgpu_stall_shd_mem[s_mem][bk_conf] = 0
gpgpu_stall_shd_mem[gl_mem][bk_conf] = 0
gpgpu_stall_shd_mem[gl_mem][coal_stall] = 1789269
gpgpu_stall_shd_mem[gl_mem][data_port_stall] = 0
gpgpu_stall_shd_mem[g_mem_ld][mshr_rc] = 0
gpgpu_stall_shd_mem[g_mem_ld][icnt_rc] = 0
gpgpu_stall_shd_mem[g_mem_ld][wb_icnt_rc] = 0
gpgpu_stall_shd_mem[g_mem_ld][wb_rsrv_fail] = 0
gpgpu_stall_shd_mem[g_mem_st][mshr_rc] = 0
gpgpu_stall_shd_mem[g_mem_st][icnt_rc] = 0
gpgpu_stall_shd_mem[g_mem_st][wb_icnt_rc] = 0
gpgpu_stall_shd_mem[g_mem_st][wb_rsrv_fail] = 0
gpgpu_stall_shd_mem[l_mem_ld][mshr_rc] = 0
gpgpu_stall_shd_mem[l_mem_ld][icnt_rc] = 0
gpgpu_stall_shd_mem[l_mem_ld][wb_icnt_rc] = 0
gpgpu_stall_shd_mem[l_mem_ld][wb_rsrv_fail] = 0
gpgpu_stall_shd_mem[l_mem_st][mshr_rc] = 0
gpgpu_stall_shd_mem[l_mem_st][icnt_rc] = 0
gpgpu_stall_shd_mem[l_mem_ld][wb_icnt_rc] = 0
gpgpu_stall_shd_mem[l_mem_ld][wb_rsrv_fail] = 0
gpu_reg_bank_conflict_stalls = 0
Warp Occupancy Distribution:
Stall:4071830	W0_Idle:666725	W0_Scoreboard:779860	W1:0	W2:720896	W3:0	W4:0	W5:0	W6:0	W7:0	W8:0	W9:0	W10:0	W11:0	W12:0	W13:0	W14:0	W15:0	W16:675863	W17:0	W18:0	W19:0	W20:0	W21:0	W22:0	W23:0	W24:0	W25:0	W26:0	W27:0	W28:0	W29:0	W30:0	W31:0	W32:10158080
traffic_breakdown_coretomem[GLOBAL_ACC_R] = 1308344 {8:163543,}
traffic_breakdown_coretomem[GLOBAL_ACC_W] = 20185360 {40:81920,72:49152,136:98306,}
traffic_breakdown_coretomem[INST_ACC_R] = 1456 {8:182,}
traffic_breakdown_memtocore[GLOBAL_ACC_R] = 22241848 {136:163543,}
traffic_breakdown_memtocore[GLOBAL_ACC_W] = 1835024 {8:229378,}
traffic_breakdown_memtocore[INST_ACC_R] = 24752 {136:182,}
Memory Partition 0: 
Cache L2_bank_000:
MSHR contents

Cache L2_bank_001:
MSHR contents

In Dram Latency Queue (total = 0): 
DRAM[0]: 16 bks, busW=4 BL=8 CL=12, tRRD=2 tCCD=6, tRCD=12 tRAS=28 tRP=12 tRC=40
n_cmd=799296 n_nop=704029 n_act=11784 n_pre=11768 n_req=36534 n_rd=36868 n_write=34847 bw_util=0.1794
n_activity=400243 dram_eff=0.3584
bk0: 2304a 754544i bk1: 2306a 754655i bk2: 2304a 754384i bk3: 2304a 753782i bk4: 2306a 753809i bk5: 2304a 753229i bk6: 2304a 754736i bk7: 2304a 753842i bk8: 2304a 755219i bk9: 2304a 753616i bk10: 2304a 754319i bk11: 2304a 754238i bk12: 2304a 753851i bk13: 2304a 753164i bk14: 2304a 754024i bk15: 2304a 752840i 
dram_util_bins: 0 0 0 0 0 0 0 0 0 0
dram_eff_bins: 0 0 0 0 0 0 0 0 0 0
mrqq: max=16 avg=2.65592
Memory Partition 1: 
Cache L2_bank_002:
MSHR contents

Cache L2_bank_003:
MSHR contents

In Dram Latency Queue (total = 0): 
DRAM[1]: 16 bks, busW=4 BL=8 CL=12, tRRD=2 tCCD=6, tRCD=12 tRAS=28 tRP=12 tRC=40
n_cmd=799296 n_nop=703857 n_act=11870 n_pre=11854 n_req=36537 n_rd=36860 n_write=34855 bw_util=0.1794
n_activity=401583 dram_eff=0.3572
bk0: 2300a 753001i bk1: 2304a 755684i bk2: 2304a 754068i bk3: 2304a 754889i bk4: 2304a 753623i bk5: 2304a 754425i bk6: 2304a 755423i bk7: 2304a 754270i bk8: 2304a 754708i bk9: 2304a 753080i bk10: 2304a 753753i bk11: 2304a 754052i bk12: 2304a 752847i bk13: 2304a 753375i bk14: 2304a 753213i bk15: 2304a 754354i 
dram_util_bins: 0 0 0 0 0 0 0 0 0 0
dram_eff_bins: 0 0 0 0 0 0 0 0 0 0
mrqq: max=16 avg=2.66385
Memory Partition 2: 
Cache L2_bank_004:
MSHR contents

Cache L2_bank_005:
MSHR contents

In Dram Latency Queue (total = 0): 
DRAM[2]: 16 bks, busW=4 BL=8 CL=12, tRRD=2 tCCD=6, tRCD=12 tRAS=28 tRP=12 tRC=40
n_cmd=799296 n_nop=704174 n_act=11699 n_pre=11683 n_req=36551 n_rd=36876 n_write=34864 bw_util=0.1795
n_activity=403436 dram_eff=0.3556
bk0: 2308a 755004i bk1: 2304a 755226i bk2: 2304a 755574i bk3: 2304a 753523i bk4: 2304a 753785i bk5: 2312a 755215i bk6: 2304a 755952i bk7: 2304a 755316i bk8: 2304a 754312i bk9: 2304a 754869i bk10: 2304a 753698i bk11: 2304a 754663i bk12: 2304a 752024i bk13: 2304a 753142i bk14: 2304a 752680i bk15: 2304a 753253i 
dram_util_bins: 0 0 0 0 0 0 0 0 0 0
dram_eff_bins: 0 0 0 0 0 0 0 0 0 0
mrqq: max=16 avg=2.65182
Memory Partition 3: 
Cache L2_bank_006:
MSHR contents

Cache L2_bank_007:
MSHR contents

In Dram Latency Queue (total = 0): 
DRAM[3]: 16 bks, busW=4 BL=8 CL=12, tRRD=2 tCCD=6, tRCD=12 tRAS=28 tRP=12 tRC=40
n_cmd=799296 n_nop=704034 n_act=11775 n_pre=11759 n_req=36541 n_rd=36874 n_write=34854 bw_util=0.1795
n_activity=400946 dram_eff=0.3578
bk0: 2306a 754933i bk1: 2304a 754482i bk2: 2304a 755491i bk3: 2304a 753403i bk4: 2304a 753563i bk5: 2312a 755022i bk6: 2304a 754919i bk7: 2304a 754289i bk8: 2304a 753483i bk9: 2304a 754306i bk10: 2304a 754585i bk11: 2304a 753357i bk12: 2304a 752172i bk13: 2304a 753366i bk14: 2304a 753616i bk15: 2304a 752678i 
dram_util_bins: 0 0 0 0 0 0 0 0 0 0
dram_eff_bins: 0 0 0 0 0 0 0 0 0 0
mrqq: max=16 avg=2.62889
Memory Partition 4: 
Cache L2_bank_008:
MSHR contents

Cache L2_bank_009:
MSHR contents

In Dram Latency Queue (total = 0): 
DRAM[4]: 16 bks, busW=4 BL=8 CL=12, tRRD=2 tCCD=6, tRCD=12 tRAS=28 tRP=12 tRC=40
n_cmd=799296 n_nop=704090 n_act=11751 n_pre=11735 n_req=36534 n_rd=36872 n_write=34848 bw_util=0.1795
n_activity=402030 dram_eff=0.3568
bk0: 2308a 754551i bk1: 2304a 753998i bk2: 2304a 754189i bk3: 2304a 754681i bk4: 2304a 752902i bk5: 2308a 755342i bk6: 2304a 755110i bk7: 2304a 755330i bk8: 2304a 754034i bk9: 2304a 754888i bk10: 2304a 754464i bk11: 2304a 754443i bk12: 2304a 752136i bk13: 2304a 753248i bk14: 2304a 753148i bk15: 2304a 754688i 
dram_util_bins: 0 0 0 0 0 0 0 0 0 0
dram_eff_bins: 0 0 0 0 0 0 0 0 0 0
mrqq: max=16 avg=2.63004
Memory Partition 5: 
Cache L2_bank_010:
MSHR contents

Cache L2_bank_011:
MSHR contents

In Dram Latency Queue (total = 0): 
DRAM[5]: 16 bks, busW=4 BL=8 CL=12, tRRD=2 tCCD=6, tRCD=12 tRAS=28 tRP=12 tRC=40
n_cmd=799296 n_nop=704115 n_act=11734 n_pre=11718 n_req=36543 n_rd=36872 n_write=34857 bw_util=0.1795
n_activity=399663 dram_eff=0.3589
bk0: 2308a 757005i bk1: 2304a 754418i bk2: 2304a 755401i bk3: 2304a 754315i bk4: 2304a 753866i bk5: 2308a 753525i bk6: 2304a 754439i bk7: 2304a 754988i bk8: 2304a 752579i bk9: 2304a 752955i bk10: 2304a 754474i bk11: 2304a 753500i bk12: 2304a 753030i bk13: 2304a 753152i bk14: 2304a 752152i bk15: 2304a 754273i 
dram_util_bins: 0 0 0 0 0 0 0 0 0 0
dram_eff_bins: 0 0 0 0 0 0 0 0 0 0
mrqq: max=16 avg=2.64535

========= L2 cache stats =========
L2_cache_bank[0]: Access = 32796, Miss = 9217, Miss_rate = 0.281, Pending_hits = 915, Reservation_fails = 11425
L2_cache_bank[1]: Access = 32726, Miss = 9217, Miss_rate = 0.282, Pending_hits = 925, Reservation_fails = 9896
L2_cache_bank[2]: Access = 32790, Miss = 9214, Miss_rate = 0.281, Pending_hits = 911, Reservation_fails = 10503
L2_cache_bank[3]: Access = 32720, Miss = 9216, Miss_rate = 0.282, Pending_hits = 946, Reservation_fails = 10723
L2_cache_bank[4]: Access = 32802, Miss = 9218, Miss_rate = 0.281, Pending_hits = 948, Reservation_fails = 10322
L2_cache_bank[5]: Access = 32614, Miss = 9220, Miss_rate = 0.283, Pending_hits = 926, Reservation_fails = 10706
L2_cache_bank[6]: Access = 32927, Miss = 9217, Miss_rate = 0.280, Pending_hits = 902, Reservation_fails = 9227
L2_cache_bank[7]: Access = 32703, Miss = 9220, Miss_rate = 0.282, Pending_hits = 940, Reservation_fails = 10183
L2_cache_bank[8]: Access = 32793, Miss = 9218, Miss_rate = 0.281, Pending_hits = 904, Reservation_fails = 10176
L2_cache_bank[9]: Access = 32612, Miss = 9218, Miss_rate = 0.283, Pending_hits = 907, Reservation_fails = 9639
L2_cache_bank[10]: Access = 32781, Miss = 9218, Miss_rate = 0.281, Pending_hits = 917, Reservation_fails = 9948
L2_cache_bank[11]: Access = 32839, Miss = 9218, Miss_rate = 0.281, Pending_hits = 945, Reservation_fails = 11783
L2_total_cache_accesses = 393103
L2_total_cache_misses = 110611
L2_total_cache_miss_rate = 0.2814
L2_total_cache_pending_hits = 11086
L2_total_cache_reservation_fails = 124531
L2_total_cache_breakdown:
	L2_cache_stats_breakdown[GLOBAL_ACC_R][HIT] = 50030
	L2_cache_stats_breakdown[GLOBAL_ACC_R][HIT_RESERVED] = 4963
	L2_cache_stats_breakdown[GLOBAL_ACC_R][MISS] = 108550
	L2_cache_stats_breakdown[GLOBAL_ACC_R][RESERVATION_FAIL] = 1404
	L2_cache_stats_breakdown[GLOBAL_ACC_W][HIT] = 221245
	L2_cache_stats_breakdown[GLOBAL_ACC_W][HIT_RESERVED] = 6085
	L2_cache_stats_breakdown[GLOBAL_ACC_W][MISS] = 2048
	L2_cache_stats_breakdown[GLOBAL_ACC_W][RESERVATION_FAIL] = 121744
	L2_cache_stats_breakdown[INST_ACC_R][HIT] = 131
	L2_cache_stats_breakdown[INST_ACC_R][HIT_RESERVED] = 38
	L2_cache_stats_breakdown[INST_ACC_R][MISS] = 13
	L2_cache_stats_breakdown[INST_ACC_R][RESERVATION_FAIL] = 1383
L2_cache_data_port_util = 0.158
L2_cache_fill_port_util = 0.060

icnt_total_pkts_mem_to_simt=1048003
icnt_total_pkts_simt_to_mem=966551
LD_mem_lat_dist  0 0 0 0 0 0 0 0 0 0 0 0 0 0 0 0 0 0 0 0 0 0 0 0 0 0 0
ST_mem_lat_dist  0 0 0 0 0 0 0 0 0 0 0 0 0 0 0 0 0 0 0 0 0 0 0 0 0 0 0
----------------------------Interconnect-DETAILS--------------------------------
Class 0:
Packet latency average = 35.9782
	minimum = 6
	maximum = 468
Network latency average = 23.7353
	minimum = 6
	maximum = 464
Slowest packet = 283956
Flit latency average = 19.7288
	minimum = 6
	maximum = 461
Slowest flit = 671401
Fragmentation average = 0.0844
	minimum = 0
	maximum = 445
Injected packet rate average = 0.120258
	minimum = 0.107847 (at node 9)
	maximum = 0.131467 (at node 20)
Accepted packet rate average = 0.120258
	minimum = 0.107847 (at node 9)
	maximum = 0.131467 (at node 20)
Injected flit rate average = 0.321758
	minimum = 0.260253 (at node 2)
	maximum = 0.386822 (at node 20)
Accepted flit rate average= 0.321758
	minimum = 0.315498 (at node 23)
	maximum = 0.336957 (at node 8)
Injected packet length average = 2.67557
Accepted packet length average = 2.67557
Total in-flight flits = 0 (0 measured)
====== Overall Traffic Statistics ======
====== Traffic class 0 ======
Packet latency average = 24.8689 (2 samples)
	minimum = 6 (2 samples)
	maximum = 384 (2 samples)
Network latency average = 17.6057 (2 samples)
	minimum = 6 (2 samples)
	maximum = 362 (2 samples)
Flit latency average = 15.368 (2 samples)
	minimum = 6 (2 samples)
	maximum = 360 (2 samples)
Fragmentation average = 0.0480145 (2 samples)
	minimum = 0 (2 samples)
	maximum = 316.5 (2 samples)
Injected packet rate average = 0.0721116 (2 samples)
	minimum = 0.0641466 (2 samples)
	maximum = 0.0787498 (2 samples)
Accepted packet rate average = 0.0721116 (2 samples)
	minimum = 0.0641466 (2 samples)
	maximum = 0.0787498 (2 samples)
Injected flit rate average = 0.189147 (2 samples)
	minimum = 0.156018 (2 samples)
	maximum = 0.222676 (2 samples)
Accepted flit rate average = 0.189147 (2 samples)
	minimum = 0.179934 (2 samples)
	maximum = 0.201186 (2 samples)
Injected packet size average = 2.62298 (2 samples)
Accepted packet size average = 2.62298 (2 samples)
Hops average = 1 (2 samples)
----------------------------END-of-Interconnect-DETAILS-------------------------


gpgpu_simulation_time = 0 days, 0 hrs, 6 min, 6 sec (366 sec)
gpgpu_simulation_rate = 901568 (inst/sec)
gpgpu_simulation_rate = 1674 (cycle/sec)
Training done
