

        *** GPGPU-Sim Simulator Version 3.2.2  [build 17315] ***


GPGPU-Sim PTX: simulation mode 0 (can change with PTX_SIM_MODE_FUNC environment variable:
               1=functional simulation only, 0=detailed performance simulator)
GPGPU-Sim: Configuration options:

-network_mode                           1 # Interconnection network mode
-inter_config_file   config_fermi_islip.icnt # Interconnection network config file
-gpgpu_ptx_use_cuobjdump                    1 # Use cuobjdump to extract ptx and sass from binaries
-gpgpu_experimental_lib_support                    0 # Try to extract code from cuda libraries [Broken because of unknown cudaGetExportTable]
-gpgpu_ptx_convert_to_ptxplus                    1 # Convert SASS (native ISA) to ptxplus and run ptxplus
-gpgpu_ptx_force_max_capability                   20 # Force maximum compute capability
-gpgpu_ptx_inst_debug_to_file                    0 # Dump executed instructions' debug information to file
-gpgpu_ptx_inst_debug_file       inst_debug.txt # Executed instructions' debug output file
-gpgpu_ptx_inst_debug_thread_uid                    1 # Thread UID for executed instructions' debug output
-gpgpu_simd_model                       1 # 1 = post-dominator
-gpgpu_shader_core_pipeline              3072:32 # shader core pipeline config, i.e., {<nthread>:<warpsize>}
-gpgpu_tex_cache:l1  4:128:24,L:R:m:N,F:128:4,128:2 # per-shader L1 texture cache  (READ-ONLY) config  {<nsets>:<bsize>:<assoc>,<rep>:<wr>:<alloc>:<wr_alloc>,<mshr>:<N>:<merge>,<mq>:<rf>}
-gpgpu_const_cache:l1 64:64:2,L:R:f:N,A:2:32,4 # per-shader L1 constant memory cache  (READ-ONLY) config  {<nsets>:<bsize>:<assoc>,<rep>:<wr>:<alloc>:<wr_alloc>,<mshr>:<N>:<merge>,<mq>} 
-gpgpu_cache:il1     4:128:4,L:R:f:N,A:2:32,4 # shader L1 instruction cache config  {<nsets>:<bsize>:<assoc>,<rep>:<wr>:<alloc>:<wr_alloc>,<mshr>:<N>:<merge>,<mq>} 
-gpgpu_cache:dl1     32:128:4,L:L:m:N,A:32:8,8 # per-shader L1 data cache config  {<nsets>:<bsize>:<assoc>,<rep>:<wr>:<alloc>:<wr_alloc>,<mshr>:<N>:<merge>,<mq> | none}
-gpgpu_cache:dl1PrefL1                 none # per-shader L1 data cache config  {<nsets>:<bsize>:<assoc>,<rep>:<wr>:<alloc>:<wr_alloc>,<mshr>:<N>:<merge>,<mq> | none}
-gpgpu_cache:dl1PreShared                 none # per-shader L1 data cache config  {<nsets>:<bsize>:<assoc>,<rep>:<wr>:<alloc>:<wr_alloc>,<mshr>:<N>:<merge>,<mq> | none}
-gmem_skip_L1D                          0 # global memory access skip L1D cache (implements -Xptxas -dlcm=cg, default=no skip)
-gpgpu_perfect_mem                      0 # enable perfect memory mode (no cache miss)
-n_regfile_gating_group                    4 # group of lanes that should be read/written together)
-gpgpu_clock_gated_reg_file                    0 # enable clock gated reg file for power calculations
-gpgpu_clock_gated_lanes                    0 # enable clock gated lanes for power calculations
-gpgpu_shader_registers                32768 # Number of registers per shader core. Limits number of concurrent CTAs. (default 8192)
-gpgpu_shader_cta                      16 # Maximum number of concurrent CTAs in shader (default 8)
-gpgpu_n_clusters                      14 # number of processing clusters
-gpgpu_n_cores_per_cluster                    1 # number of simd cores per cluster
-gpgpu_n_cluster_ejection_buffer_size                    8 # number of packets in ejection buffer
-gpgpu_n_ldst_response_buffer_size                    2 # number of response packets in ld/st unit ejection buffer
-gpgpu_shmem_size                   16384 # Size of shared memory per shader core (default 16kB)
-gpgpu_shmem_size                   49152 # Size of shared memory per shader core (default 16kB)
-gpgpu_shmem_size_PrefL1                16384 # Size of shared memory per shader core (default 16kB)
-gpgpu_shmem_size_PrefShared                16384 # Size of shared memory per shader core (default 16kB)
-gpgpu_shmem_num_banks                   32 # Number of banks in the shared memory in each shader core (default 16)
-gpgpu_shmem_limited_broadcast                    0 # Limit shared memory to do one broadcast per cycle (default on)
-gpgpu_shmem_warp_parts                    1 # Number of portions a warp is divided into for shared memory bank conflict check 
-gpgpu_warpdistro_shader                   -1 # Specify which shader core to collect the warp size distribution from
-gpgpu_warp_issue_shader                    0 # Specify which shader core to collect the warp issue distribution from
-gpgpu_local_mem_map                    1 # Mapping from local memory space address to simulated GPU physical address space (default = enabled)
-gpgpu_num_reg_banks                   16 # Number of register banks (default = 8)
-gpgpu_reg_bank_use_warp_id                    0 # Use warp ID in mapping registers to banks (default = off)
-gpgpu_operand_collector_num_units_sp                    6 # number of collector units (default = 4)
-gpgpu_operand_collector_num_units_sfu                    8 # number of collector units (default = 4)
-gpgpu_operand_collector_num_units_mem                    2 # number of collector units (default = 2)
-gpgpu_operand_collector_num_units_gen                    0 # number of collector units (default = 0)
-gpgpu_operand_collector_num_in_ports_sp                    2 # number of collector unit in ports (default = 1)
-gpgpu_operand_collector_num_in_ports_sfu                    1 # number of collector unit in ports (default = 1)
-gpgpu_operand_collector_num_in_ports_mem                    1 # number of collector unit in ports (default = 1)
-gpgpu_operand_collector_num_in_ports_gen                    0 # number of collector unit in ports (default = 0)
-gpgpu_operand_collector_num_out_ports_sp                    2 # number of collector unit in ports (default = 1)
-gpgpu_operand_collector_num_out_ports_sfu                    1 # number of collector unit in ports (default = 1)
-gpgpu_operand_collector_num_out_ports_mem                    1 # number of collector unit in ports (default = 1)
-gpgpu_operand_collector_num_out_ports_gen                    0 # number of collector unit in ports (default = 0)
-gpgpu_coalesce_arch                   13 # Coalescing arch (default = 13, anything else is off for now)
-gpgpu_num_sched_per_core                    2 # Number of warp schedulers per core
-gpgpu_max_insn_issue_per_warp                    1 # Max number of instructions that can be issued per warp in one cycle by scheduler
-gpgpu_simt_core_sim_order                    1 # Select the simulation order of cores in a cluster (0=Fix, 1=Round-Robin)
-gpgpu_pipeline_widths        2,1,1,2,1,1,2 # Pipeline widths ID_OC_SP,ID_OC_SFU,ID_OC_MEM,OC_EX_SP,OC_EX_SFU,OC_EX_MEM,EX_WB
-gpgpu_num_sp_units                     2 # Number of SP units (default=1)
-gpgpu_num_sfu_units                    1 # Number of SF units (default=1)
-gpgpu_num_mem_units                    1 # Number if ldst units (default=1) WARNING: not hooked up to anything
-gpgpu_scheduler                      owf # Scheduler configuration: < lrr | gto | two_level_active > If two_level_active:<num_active_warps>:<inner_prioritization>:<outer_prioritization>For complete list of prioritization values see shader.h enum scheduler_prioritization_typeDefault: gto
-gpgpu_reg_sharing_approach                    4 # Approach used register sharing (default=3)
-gpgpu_reg_share_thersh_hold                  0.1 # Thresh hold factor used for sharing (default=0.5)
-gpgpu_dram_scheduler                    1 # 0 = fifo, 1 = FR-FCFS (defaul)
-gpgpu_dram_partition_queues              8:8:8:8 # i2$:$2d:d2$:$2i
-l2_ideal                               0 # Use a ideal L2 cache that always hit
-gpgpu_cache:dl2     64:128:8,L:B:m:W,A:32:4,4:0,32 # unified banked L2 data cache config  {<nsets>:<bsize>:<assoc>,<rep>:<wr>:<alloc>:<wr_alloc>,<mshr>:<N>:<merge>,<mq>}
-gpgpu_cache:dl2_texture_only                    0 # L2 cache used for texture only
-gpgpu_n_mem                            6 # number of memory modules (e.g. memory controllers) in gpu
-gpgpu_n_sub_partition_per_mchannel                    2 # number of memory subpartition in each memory module
-gpgpu_n_mem_per_ctrlr                    2 # number of memory chips per memory controller
-gpgpu_memlatency_stat                    0 # track and display latency statistics 0x2 enables MC, 0x4 enables queue logs
-gpgpu_frfcfs_dram_sched_queue_size                   16 # 0 = unlimited (default); # entries per chip
-gpgpu_dram_return_queue_size                  114 # 0 = unlimited (default); # entries per chip
-gpgpu_dram_buswidth                    4 # default = 4 bytes (8 bytes per cycle at DDR)
-gpgpu_dram_burst_length                    8 # Burst length of each DRAM request (default = 4 data bus cycle)
-dram_data_command_freq_ratio                    4 # Frequency ratio between DRAM data bus and command bus (default = 2 times, i.e. DDR)
-gpgpu_dram_timing_opt nbk=16:CCD=2:RRD=6:RCD=12:RAS=28:RP=12:RC=40: CL=12:WL=4:CDLR=5:WR=12:nbkgrp=4:CCDL=3:RTPL=2 # DRAM timing parameters = {nbk:tCCD:tRRD:tRCD:tRAS:tRP:tRC:CL:WL:tCDLR:tWR:nbkgrp:tCCDL:tRTPL}
-rop_latency                          120 # ROP queue latency (default 85)
-dram_latency                         100 # DRAM latency (default 30)
-gpgpu_mem_addr_mapping dramid@8;00000000.00000000.00000000.00000000.0000RRRR.RRRRRRRR.BBBCCCCB.CCSSSSSS # mapping memory address to dram model {dramid@<start bit>;<memory address map>}
-gpgpu_mem_addr_test                    0 # run sweep test to check address mapping for aliased address
-gpgpu_mem_address_mask                    1 # 0 = old addressing mask, 1 = new addressing mask, 2 = new add. mask + flipped bank sel and chip sel bits
-gpuwattch_xml_file         gpuwattch.xml # GPUWattch XML file
-power_simulation_enabled                    0 # Turn on power simulator (1=On, 0=Off)
-power_per_cycle_dump                    0 # Dump detailed power output each cycle
-power_trace_enabled                    0 # produce a file for the power trace (1=On, 0=Off)
-power_trace_zlevel                     6 # Compression level of the power trace output log (0=no comp, 9=highest)
-steady_power_levels_enabled                    0 # produce a file for the steady power levels (1=On, 0=Off)
-steady_state_definition                  8:4 # allowed deviation:number of samples
-gpgpu_max_cycle                        0 # terminates gpu simulation early (0 = no limit)
-gpgpu_max_insn                         0 # terminates gpu simulation early (0 = no limit)
-gpgpu_max_cta                          0 # terminates gpu simulation early (0 = no limit)
-gpgpu_runtime_stat             5000000:0 # display runtime statistics such as dram utilization {<freq>:<flag>}
-liveness_message_freq                    1 # Minimum number of seconds between simulation liveness messages (0 = always print)
-gpgpu_flush_l1_cache                    0 # Flush L1 cache at the end of each kernel call
-gpgpu_flush_l2_cache                    0 # Flush L2 cache at the end of each kernel call
-gpgpu_deadlock_detect                    1 # Stop the simulation at deadlock (1=on (default), 0=off)
-gpgpu_ptx_instruction_classification                    0 # if enabled will classify ptx instruction types per kernel (Max 255 kernels now)
-gpgpu_ptx_sim_mode                     0 # Select between Performance (default) or Functional simulation (1)
-gpgpu_clock_domains 575.0:575.0:575.0:750.0 # Clock Domain Frequencies in MhZ {<Core Clock>:<ICNT Clock>:<L2 Clock>:<DRAM Clock>}
-gpgpu_max_concurrent_kernel                    8 # maximum kernels that can run concurrently on GPU
-gpgpu_cflog_interval                    0 # Interval between each snapshot in control flow logger
-visualizer_enabled                     0 # Turn on visualizer output (1=On, 0=Off)
-visualizer_outputfile                 NULL # Specifies the output log file for visualizer
-visualizer_zlevel                      6 # Compression level of the visualizer output log (0=no comp, 9=highest)
-trace_enabled                          0 # Turn on traces
-trace_components                    none # comma seperated list of traces to enable. Complete list found in trace_streams.tup. Default none
-trace_sampling_core                    0 # The core which is printed using CORE_DPRINTF. Default 0
-trace_sampling_memory_partition                   -1 # The memory partition which is printed using MEMPART_DPRINTF. Default -1 (i.e. all)
-enable_ptx_file_line_stats                    0 # Turn on PTX source line statistic profiling. (1 = On)
-ptx_line_stats_filename gpgpu_inst_stats.txt # Output file for PTX source line statistics.
-save_embedded_ptx                      0 # saves ptx files embedded in binary as <n>.ptx
-keep                                   0 # keep intermediate files created by GPGPU-Sim when interfacing with external programs
-gpgpu_ptx_save_converted_ptxplus                    1 # Saved converted ptxplus to a file
-ptx_opcode_latency_int         4,13,4,5,145 # Opcode latencies for integers <ADD,MAX,MUL,MAD,DIV>Default 1,1,19,25,145
-ptx_opcode_latency_fp          4,13,4,5,39 # Opcode latencies for single precision floating points <ADD,MAX,MUL,MAD,DIV>Default 1,1,1,1,30
-ptx_opcode_latency_dp         8,19,8,8,330 # Opcode latencies for double precision floating points <ADD,MAX,MUL,MAD,DIV>Default 8,8,8,8,335
-ptx_opcode_initiation_int            1,2,2,1,8 # Opcode initiation intervals for integers <ADD,MAX,MUL,MAD,DIV>Default 1,1,4,4,32
-ptx_opcode_initiation_fp            1,2,1,1,4 # Opcode initiation intervals for single precision floating points <ADD,MAX,MUL,MAD,DIV>Default 1,1,1,1,5
-ptx_opcode_initiation_dp         8,16,8,8,130 # Opcode initiation intervals for double precision floating points <ADD,MAX,MUL,MAD,DIV>Default 8,8,8,8,130
DRAM Timing Options:
nbk                                    16 # number of banks
CCD                                     2 # column to column delay
RRD                                     6 # minimal delay between activation of rows in different banks
RCD                                    12 # row to column delay
RAS                                    28 # time needed to activate row
RP                                     12 # time needed to precharge (deactivate) row
RC                                     40 # row cycle time
CDLR                                    5 # switching from write to read (changes tWTR)
WR                                     12 # last data-in to row precharge
CL                                     12 # CAS latency
WL                                      4 # Write latency
nbkgrp                                  4 # number of bank groups
CCDL                                    3 # column to column delay between accesses to different bank groups
RTPL                                    2 # read to precharge delay between accesses to different bank groups
Total number of memory sub partition = 12
addr_dec_mask[CHIP]  = 0000000000000000 	high:64 low:0
addr_dec_mask[BK]    = 000000000000e100 	high:16 low:8
addr_dec_mask[ROW]   = 000000000fff0000 	high:28 low:16
addr_dec_mask[COL]   = 0000000000001eff 	high:13 low:0
addr_dec_mask[BURST] = 000000000000003f 	high:6 low:0
sub_partition_id_mask = 0000000000000100
GPGPU-Sim uArch: clock freqs: 575000000.000000:575000000.000000:575000000.000000:750000000.000000
GPGPU-Sim uArch: clock periods: 0.00000000173913043478:0.00000000173913043478:0.00000000173913043478:0.00000000133333333333
*** Initializing Memory Statistics ***
GPGPU-Sim uArch: interconnect node map (shaderID+MemID to icntID)
GPGPU-Sim uArch: Memory nodes ID start from index: 14
GPGPU-Sim uArch:    0   1   2   3   4
GPGPU-Sim uArch:    5   6   7   8   9
GPGPU-Sim uArch:   10  11  12  13  14
GPGPU-Sim uArch:   15  16  17  18  19
GPGPU-Sim uArch:   20  21  22  23  24
GPGPU-Sim uArch:   25
GPGPU-Sim uArch: interconnect node reverse map (icntID to shaderID+MemID)
GPGPU-Sim uArch: Memory nodes start from ID: 14
GPGPU-Sim uArch:    0   1   2   3   4
GPGPU-Sim uArch:    5   6   7   8   9
GPGPU-Sim uArch:   10  11  12  13  14
GPGPU-Sim uArch:   15  16  17  18  19
GPGPU-Sim uArch:   20  21  22  23  24
GPGPU-Sim uArch:   25
31b8619810e4ca41fee9f370a89c6a87  /home/vishwesh/Desktop/Register_Sharing_Pbm/ispass2009-benchmarks/bin/release/BFS
GPGPU-Sim uArch: performance model initialization complete.
GPGPU-Sim PTX: __cudaRegisterFatBinary, fat_cubin_handle = 1, filename=bfs.cu
self exe links to: /home/vishwesh/Desktop/Register_Sharing_Pbm/ispass2009-benchmarks/bin/release/BFS
Running md5sum using "md5sum /home/vishwesh/Desktop/Register_Sharing_Pbm/ispass2009-benchmarks/bin/release/BFS "
Running cuobjdump using "$CUDA_INSTALL_PATH/bin/cuobjdump -ptx -elf -sass /home/vishwesh/Desktop/Register_Sharing_Pbm/ispass2009-benchmarks/bin/release/BFS > _cuobjdump_complete_output_Gynp0o"
Parsing file _cuobjdump_complete_output_Gynp0o
######### cuobjdump parser ########
## Adding new section PTX
Adding ptx filename: _cuobjdump_1.ptx
Adding arch: sm_10
Adding identifier: bfs.cu
## Adding new section ELF
Adding arch: sm_10
Adding identifier: bfs.cu
## Adding new section ELF
Adding arch: sm_20
Adding identifier: bfs.cu
## Adding new section PTX
Adding ptx filename: _cuobjdump_2.ptx
Adding arch: sm_20
Adding identifier: bfs.cu
Done parsing!!!
GPGPU-Sim: WARNING: Capability >= 20 are not supported in PTXPlus
	Setting forced_max_capability to 19
GPGPU-Sim PTX: __cudaRegisterFunction _Z6KernelP4NodePiPbS2_S1_S2_i : hostFun 0x0x403820, fat_cubin_handle = 1
GPGPU-Sim PTX: converting EMBEDDED .ptx file to ptxplus 
GPGPU-Sim PTX: DONE converting EMBEDDED .ptx file to ptxplus 
GPGPU-Sim PTX: allocating constant region for "constant1_Z6KernelP4NodePiPbS2_S1_S2_i" from 0x100 to 0x104 (global memory space) 1
GPGPU-Sim PTX: PTX uses two scalar type intruction with literal operand.
GPGPU-Sim PTX: instruction assembly for function '_Z6KernelP4NodePiPbS2_S1_S2_i'...   done.
GPGPU-Sim PTX: finding reconvergence points for '_Z6KernelP4NodePiPbS2_S1_S2_i'...
GPGPU-Sim PTX: Warning detected predicated return/exit.
GPGPU-Sim PTX: Warning detected predicated return/exit.
GPGPU-Sim PTX: Warning detected predicated return/exit.
GPGPU-Sim PTX: Finding dominators for '_Z6KernelP4NodePiPbS2_S1_S2_i'...
GPGPU-Sim PTX: Finding immediate dominators for '_Z6KernelP4NodePiPbS2_S1_S2_i'...
GPGPU-Sim PTX: Finding postdominators for '_Z6KernelP4NodePiPbS2_S1_S2_i'...
GPGPU-Sim PTX: Finding immediate postdominators for '_Z6KernelP4NodePiPbS2_S1_S2_i'...
GPGPU-Sim PTX: pre-decoding instructions for '_Z6KernelP4NodePiPbS2_S1_S2_i'...
GPGPU-Sim PTX: reconvergence points for _Z6KernelP4NodePiPbS2_S1_S2_i...
GPGPU-Sim PTX:  1 (potential) branch divergence @  PC=0x0e0 (_1.ptx:70) @$p0.ne bra l0x00000168;
GPGPU-Sim PTX:    immediate post dominator      @  PC=0x168 (_1.ptx:87) l0x00000168: nop;
GPGPU-Sim PTX:  2 (potential) branch divergence @  PC=0x188 (_1.ptx:91) @$p0.ne bra l0x000000b8;
GPGPU-Sim PTX:    immediate post dominator      @  PC=0x190 (_1.ptx:92) nop;
GPGPU-Sim PTX: ... end of reconvergence points for _Z6KernelP4NodePiPbS2_S1_S2_i
GPGPU-Sim PTX: ... done pre-decoding instructions for '_Z6KernelP4NodePiPbS2_S1_S2_i'.
GPGPU-Sim PTX: finished parsing EMBEDDED .ptx file _1.ptx
Adding _cuobjdump_1.ptx with cubin handle 1
GPGPU-Sim PTX: extracting embedded .ptx to temporary file "_ptx_zgBwGW"
Running: cat _ptx_zgBwGW | sed 's/.version 1.5/.version 1.4/' | sed 's/, texmode_independent//' | sed 's/\(\.extern \.const\[1\] .b8 \w\+\)\[\]/\1\[1\]/' | sed 's/const\[.\]/const\[0\]/g' > _ptx2_lKkEmu
GPGPU-Sim PTX: generating ptxinfo using "$CUDA_INSTALL_PATH/bin/ptxas --gpu-name=sm_20 -v _ptx2_lKkEmu --output-file  /dev/null 2> _ptx_zgBwGWinfo"
GPGPU-Sim PTX: Kernel '_Z6KernelP4NodePiPbS2_S1_S2_i' : regs=18, lmem=0, smem=0, cmem=84
GPGPU-Sim PTX: removing ptxinfo using "rm -f _ptx_zgBwGW _ptx2_lKkEmu _ptx_zgBwGWinfo"
GPGPU-Sim PTX: loading globals with explicit initializers... 
GPGPU-Sim PTX: finished loading globals (0 bytes total).
GPGPU-Sim PTX: loading constants with explicit initializers...  done.
Reading File
Input file: ./data/graph65536.txt
Read File
Copied Everything to GPU memory

GPGPU-Sim PTX: cudaLaunch for 0x0x403820 (mode=performance simulation) on stream 0
GPGPU-Sim PTX: pushing kernel '_Z6KernelP4NodePiPbS2_S1_S2_i' to stream 0, gridDim= (256,1,1) blockDim = (256,1,1) 
kernel '_Z6KernelP4NodePiPbS2_S1_S2_i' transfer to GPU hardware scheduler
GPGPU-Sim uArch: Shader 1 bind to kernel 1 '_Z6KernelP4NodePiPbS2_S1_S2_i'
GPGPU-Sim uArch: CTA/core = 10, limited by: regs
Shared mode is : 1
GPGPU-Sim uArch: core:  1, cta: 0 initialized @(1,0)
GPGPU-Sim uArch: Shader 2 bind to kernel 1 '_Z6KernelP4NodePiPbS2_S1_S2_i'
Shared mode is : 1
GPGPU-Sim uArch: core:  2, cta: 0 initialized @(1,0)
GPGPU-Sim uArch: Shader 3 bind to kernel 1 '_Z6KernelP4NodePiPbS2_S1_S2_i'
Shared mode is : 1
GPGPU-Sim uArch: core:  3, cta: 0 initialized @(1,0)
GPGPU-Sim uArch: Shader 4 bind to kernel 1 '_Z6KernelP4NodePiPbS2_S1_S2_i'
Shared mode is : 1
GPGPU-Sim uArch: core:  4, cta: 0 initialized @(1,0)
GPGPU-Sim uArch: Shader 5 bind to kernel 1 '_Z6KernelP4NodePiPbS2_S1_S2_i'
Shared mode is : 1
GPGPU-Sim uArch: core:  5, cta: 0 initialized @(1,0)
GPGPU-Sim uArch: Shader 6 bind to kernel 1 '_Z6KernelP4NodePiPbS2_S1_S2_i'
Shared mode is : 1
GPGPU-Sim uArch: core:  6, cta: 0 initialized @(1,0)
GPGPU-Sim uArch: Shader 7 bind to kernel 1 '_Z6KernelP4NodePiPbS2_S1_S2_i'
Shared mode is : 1
GPGPU-Sim uArch: core:  7, cta: 0 initialized @(1,0)
GPGPU-Sim uArch: Shader 8 bind to kernel 1 '_Z6KernelP4NodePiPbS2_S1_S2_i'
Shared mode is : 1
GPGPU-Sim uArch: core:  8, cta: 0 initialized @(1,0)
GPGPU-Sim uArch: Shader 9 bind to kernel 1 '_Z6KernelP4NodePiPbS2_S1_S2_i'
Shared mode is : 1
GPGPU-Sim uArch: core:  9, cta: 0 initialized @(1,0)
GPGPU-Sim uArch: Shader 10 bind to kernel 1 '_Z6KernelP4NodePiPbS2_S1_S2_i'
Shared mode is : 1
GPGPU-Sim uArch: core: 10, cta: 0 initialized @(1,0)
GPGPU-Sim uArch: Shader 11 bind to kernel 1 '_Z6KernelP4NodePiPbS2_S1_S2_i'
Shared mode is : 1
GPGPU-Sim uArch: core: 11, cta: 0 initialized @(1,0)
GPGPU-Sim uArch: Shader 12 bind to kernel 1 '_Z6KernelP4NodePiPbS2_S1_S2_i'
Shared mode is : 1
GPGPU-Sim uArch: core: 12, cta: 0 initialized @(1,0)
GPGPU-Sim uArch: Shader 13 bind to kernel 1 '_Z6KernelP4NodePiPbS2_S1_S2_i'
Shared mode is : 1
GPGPU-Sim uArch: core: 13, cta: 0 initialized @(1,0)
GPGPU-Sim uArch: Shader 0 bind to kernel 1 '_Z6KernelP4NodePiPbS2_S1_S2_i'
Shared mode is : 1
GPGPU-Sim uArch: core:  0, cta: 0 initialized @(1,0)
Shared mode is : 1
GPGPU-Sim uArch: core:  1, cta: 1 initialized @(2,0)
Shared mode is : 1
GPGPU-Sim uArch: core:  2, cta: 1 initialized @(2,0)
Shared mode is : 1
GPGPU-Sim uArch: core:  3, cta: 1 initialized @(2,0)
Shared mode is : 1
GPGPU-Sim uArch: core:  4, cta: 1 initialized @(2,0)
Shared mode is : 1
GPGPU-Sim uArch: core:  5, cta: 1 initialized @(2,0)
Shared mode is : 1
GPGPU-Sim uArch: core:  6, cta: 1 initialized @(2,0)
Shared mode is : 1
GPGPU-Sim uArch: core:  7, cta: 1 initialized @(2,0)
Shared mode is : 1
GPGPU-Sim uArch: core:  8, cta: 1 initialized @(2,0)
Shared mode is : 1
GPGPU-Sim uArch: core:  9, cta: 1 initialized @(2,0)
Shared mode is : 1
GPGPU-Sim uArch: core: 10, cta: 1 initialized @(2,0)
Shared mode is : 1
GPGPU-Sim uArch: core: 11, cta: 1 initialized @(2,0)
Shared mode is : 1
GPGPU-Sim uArch: core: 12, cta: 1 initialized @(2,0)
Shared mode is : 1
GPGPU-Sim uArch: core: 13, cta: 1 initialized @(2,0)
Shared mode is : 1
GPGPU-Sim uArch: core:  0, cta: 1 initialized @(2,0)
Shared mode is : 1
GPGPU-Sim uArch: core:  1, cta: 2 initialized @(3,0)
Shared mode is : 1
GPGPU-Sim uArch: core:  2, cta: 2 initialized @(3,0)
Shared mode is : 1
GPGPU-Sim uArch: core:  3, cta: 2 initialized @(3,0)
Shared mode is : 1
GPGPU-Sim uArch: core:  4, cta: 2 initialized @(3,0)
Shared mode is : 1
GPGPU-Sim uArch: core:  5, cta: 2 initialized @(3,0)
Shared mode is : 1
GPGPU-Sim uArch: core:  6, cta: 2 initialized @(3,0)
Shared mode is : 1
GPGPU-Sim uArch: core:  7, cta: 2 initialized @(3,0)
Shared mode is : 1
GPGPU-Sim uArch: core:  8, cta: 2 initialized @(3,0)
Shared mode is : 1
GPGPU-Sim uArch: core:  9, cta: 2 initialized @(3,0)
Shared mode is : 1
GPGPU-Sim uArch: core: 10, cta: 2 initialized @(3,0)
Shared mode is : 1
GPGPU-Sim uArch: core: 11, cta: 2 initialized @(3,0)
Shared mode is : 1
GPGPU-Sim uArch: core: 12, cta: 2 initialized @(3,0)
Shared mode is : 1
GPGPU-Sim uArch: core: 13, cta: 2 initialized @(3,0)
Shared mode is : 1
GPGPU-Sim uArch: core:  0, cta: 2 initialized @(3,0)
Shared mode is : 1
GPGPU-Sim uArch: core:  1, cta: 3 initialized @(4,0)
Shared mode is : 1
GPGPU-Sim uArch: core:  2, cta: 3 initialized @(4,0)
Shared mode is : 1
GPGPU-Sim uArch: core:  3, cta: 3 initialized @(4,0)
Shared mode is : 1
GPGPU-Sim uArch: core:  4, cta: 3 initialized @(4,0)
Shared mode is : 1
GPGPU-Sim uArch: core:  5, cta: 3 initialized @(4,0)
Shared mode is : 1
GPGPU-Sim uArch: core:  6, cta: 3 initialized @(4,0)
Shared mode is : 1
GPGPU-Sim uArch: core:  7, cta: 3 initialized @(4,0)
Shared mode is : 1
GPGPU-Sim uArch: core:  8, cta: 3 initialized @(4,0)
Shared mode is : 1
GPGPU-Sim uArch: core:  9, cta: 3 initialized @(4,0)
Shared mode is : 1
GPGPU-Sim uArch: core: 10, cta: 3 initialized @(4,0)
Shared mode is : 1
GPGPU-Sim uArch: core: 11, cta: 3 initialized @(4,0)
Shared mode is : 1
GPGPU-Sim uArch: core: 12, cta: 3 initialized @(4,0)
Shared mode is : 1
GPGPU-Sim uArch: core: 13, cta: 3 initialized @(4,0)
Shared mode is : 1
GPGPU-Sim uArch: core:  0, cta: 3 initialized @(4,0)
Shared mode is : 1
GPGPU-Sim uArch: core:  1, cta: 4 initialized @(5,0)
Shared mode is : 1
GPGPU-Sim uArch: core:  2, cta: 4 initialized @(5,0)
Shared mode is : 1
GPGPU-Sim uArch: core:  3, cta: 4 initialized @(5,0)
Shared mode is : 1
GPGPU-Sim uArch: core:  4, cta: 4 initialized @(5,0)
Shared mode is : 1
GPGPU-Sim uArch: core:  5, cta: 4 initialized @(5,0)
Shared mode is : 1
GPGPU-Sim uArch: core:  6, cta: 4 initialized @(5,0)
Shared mode is : 1
GPGPU-Sim uArch: core:  7, cta: 4 initialized @(5,0)
Shared mode is : 1
GPGPU-Sim uArch: core:  8, cta: 4 initialized @(5,0)
Shared mode is : 1
GPGPU-Sim uArch: core:  9, cta: 4 initialized @(5,0)
Shared mode is : 1
GPGPU-Sim uArch: core: 10, cta: 4 initialized @(5,0)
Shared mode is : 1
GPGPU-Sim uArch: core: 11, cta: 4 initialized @(5,0)
Shared mode is : 1
GPGPU-Sim uArch: core: 12, cta: 4 initialized @(5,0)
Shared mode is : 1
GPGPU-Sim uArch: core: 13, cta: 4 initialized @(5,0)
Shared mode is : 1
GPGPU-Sim uArch: core:  0, cta: 4 initialized @(5,0)
Shared mode is : 1
GPGPU-Sim uArch: core:  1, cta: 5 initialized @(6,0)
Shared mode is : 1
GPGPU-Sim uArch: core:  2, cta: 5 initialized @(6,0)
Shared mode is : 1
GPGPU-Sim uArch: core:  3, cta: 5 initialized @(6,0)
Shared mode is : 1
GPGPU-Sim uArch: core:  4, cta: 5 initialized @(6,0)
Shared mode is : 1
GPGPU-Sim uArch: core:  5, cta: 5 initialized @(6,0)
Shared mode is : 1
GPGPU-Sim uArch: core:  6, cta: 5 initialized @(6,0)
Shared mode is : 1
GPGPU-Sim uArch: core:  7, cta: 5 initialized @(6,0)
Shared mode is : 1
GPGPU-Sim uArch: core:  8, cta: 5 initialized @(6,0)
Shared mode is : 1
GPGPU-Sim uArch: core:  9, cta: 5 initialized @(6,0)
Shared mode is : 1
GPGPU-Sim uArch: core: 10, cta: 5 initialized @(6,0)
Shared mode is : 1
GPGPU-Sim uArch: core: 11, cta: 5 initialized @(6,0)
Shared mode is : 1
GPGPU-Sim uArch: core: 12, cta: 5 initialized @(6,0)
Shared mode is : 1
GPGPU-Sim uArch: core: 13, cta: 5 initialized @(6,0)
Shared mode is : 1
GPGPU-Sim uArch: core:  0, cta: 5 initialized @(6,0)
Shared mode is : 1
GPGPU-Sim uArch: core:  1, cta: 6 initialized @(7,0)
Shared mode is : 1
GPGPU-Sim uArch: core:  2, cta: 6 initialized @(7,0)
Shared mode is : 1
GPGPU-Sim uArch: core:  3, cta: 6 initialized @(7,0)
Shared mode is : 1
GPGPU-Sim uArch: core:  4, cta: 6 initialized @(7,0)
Shared mode is : 1
GPGPU-Sim uArch: core:  5, cta: 6 initialized @(7,0)
Shared mode is : 1
GPGPU-Sim uArch: core:  6, cta: 6 initialized @(7,0)
Shared mode is : 1
GPGPU-Sim uArch: core:  7, cta: 6 initialized @(7,0)
Shared mode is : 1
GPGPU-Sim uArch: core:  8, cta: 6 initialized @(7,0)
Shared mode is : 1
GPGPU-Sim uArch: core:  9, cta: 6 initialized @(7,0)
Shared mode is : 1
GPGPU-Sim uArch: core: 10, cta: 6 initialized @(7,0)
Shared mode is : 1
GPGPU-Sim uArch: core: 11, cta: 6 initialized @(7,0)
Shared mode is : 1
GPGPU-Sim uArch: core: 12, cta: 6 initialized @(7,0)
Shared mode is : 1
GPGPU-Sim uArch: core: 13, cta: 6 initialized @(7,0)
Shared mode is : 1
GPGPU-Sim uArch: core:  0, cta: 6 initialized @(7,0)
Shared mode is : 1
GPGPU-Sim uArch: core:  1, cta: 7 initialized @(8,0)
Shared mode is : 1
GPGPU-Sim uArch: core:  2, cta: 7 initialized @(8,0)
Shared mode is : 1
GPGPU-Sim uArch: core:  3, cta: 7 initialized @(8,0)
Shared mode is : 1
GPGPU-Sim uArch: core:  4, cta: 7 initialized @(8,0)
Shared mode is : 1
GPGPU-Sim uArch: core:  5, cta: 7 initialized @(8,0)
Shared mode is : 1
GPGPU-Sim uArch: core:  6, cta: 7 initialized @(8,0)
Shared mode is : 1
GPGPU-Sim uArch: core:  7, cta: 7 initialized @(8,0)
Shared mode is : 1
GPGPU-Sim uArch: core:  8, cta: 7 initialized @(8,0)
Shared mode is : 1
GPGPU-Sim uArch: core:  9, cta: 7 initialized @(8,0)
Shared mode is : 1
GPGPU-Sim uArch: core: 10, cta: 7 initialized @(8,0)
Shared mode is : 1
GPGPU-Sim uArch: core: 11, cta: 7 initialized @(8,0)
Shared mode is : 1
GPGPU-Sim uArch: core: 12, cta: 7 initialized @(8,0)
Shared mode is : 1
GPGPU-Sim uArch: core: 13, cta: 7 initialized @(8,0)
Shared mode is : 1
GPGPU-Sim uArch: core:  0, cta: 7 initialized @(8,0)
Shared mode is : 1
GPGPU-Sim uArch: core:  1, cta: 8 initialized @(9,0)
Shared mode is : 1
GPGPU-Sim uArch: core:  2, cta: 8 initialized @(9,0)
Shared mode is : 1
GPGPU-Sim uArch: core:  3, cta: 8 initialized @(9,0)
Shared mode is : 1
GPGPU-Sim uArch: core:  4, cta: 8 initialized @(9,0)
Shared mode is : 1
GPGPU-Sim uArch: core:  5, cta: 8 initialized @(9,0)
Shared mode is : 1
GPGPU-Sim uArch: core:  6, cta: 8 initialized @(9,0)
Shared mode is : 1
GPGPU-Sim uArch: core:  7, cta: 8 initialized @(9,0)
Shared mode is : 1
GPGPU-Sim uArch: core:  8, cta: 8 initialized @(9,0)
Shared mode is : 1
GPGPU-Sim uArch: core:  9, cta: 8 initialized @(9,0)
Shared mode is : 1
GPGPU-Sim uArch: core: 10, cta: 8 initialized @(9,0)
Shared mode is : 1
GPGPU-Sim uArch: core: 11, cta: 8 initialized @(9,0)
Shared mode is : 1
GPGPU-Sim uArch: core: 12, cta: 8 initialized @(9,0)
Shared mode is : 1
GPGPU-Sim uArch: core: 13, cta: 8 initialized @(9,0)
Shared mode is : 1
GPGPU-Sim uArch: core:  0, cta: 8 initialized @(9,0)
Shared mode is : 1
GPGPU-Sim uArch: core:  1, cta: 9 initialized @(10,0)
Shared mode is : 1
GPGPU-Sim uArch: core:  2, cta: 9 initialized @(10,0)
Shared mode is : 1
GPGPU-Sim uArch: core:  3, cta: 9 initialized @(10,0)
Shared mode is : 1
GPGPU-Sim uArch: core:  4, cta: 9 initialized @(10,0)
Shared mode is : 1
GPGPU-Sim uArch: core:  5, cta: 9 initialized @(10,0)
Shared mode is : 1
GPGPU-Sim uArch: core:  6, cta: 9 initialized @(10,0)
Shared mode is : 1
GPGPU-Sim uArch: core:  7, cta: 9 initialized @(10,0)
Shared mode is : 1
GPGPU-Sim uArch: core:  8, cta: 9 initialized @(10,0)
Shared mode is : 1
GPGPU-Sim uArch: core:  9, cta: 9 initialized @(10,0)
Shared mode is : 1
GPGPU-Sim uArch: core: 10, cta: 9 initialized @(10,0)
Shared mode is : 1
GPGPU-Sim uArch: core: 11, cta: 9 initialized @(10,0)
Shared mode is : 1
GPGPU-Sim uArch: core: 12, cta: 9 initialized @(10,0)
Shared mode is : 1
GPGPU-Sim uArch: core: 13, cta: 9 initialized @(10,0)
Shared mode is : 1
GPGPU-Sim uArch: core:  0, cta: 9 initialized @(10,0)
GPGPU-Sim uArch: Shader 4 finished CTA #9 (737,0), 9 CTAs running
Shared mode is : 1
GPGPU-Sim uArch: core:  4, cta: 9 initialized @(738,0)
GPGPU-Sim uArch: Shader 0 finished CTA #4 (759,0), 9 CTAs running
Shared mode is : 1
GPGPU-Sim uArch: core:  0, cta: 4 initialized @(760,0)
GPGPU-Sim uArch: Shader 1 finished CTA #5 (762,0), 9 CTAs running
Shared mode is : 1
GPGPU-Sim uArch: core:  1, cta: 5 initialized @(763,0)
GPGPU-Sim uArch: Shader 5 finished CTA #8 (765,0), 9 CTAs running
Shared mode is : 1
GPGPU-Sim uArch: core:  5, cta: 8 initialized @(766,0)
GPGPU-Sim uArch: Shader 3 finished CTA #6 (768,0), 9 CTAs running
Shared mode is : 1
GPGPU-Sim uArch: core:  3, cta: 6 initialized @(769,0)
GPGPU-Sim uArch: Shader 2 finished CTA #6 (770,0), 9 CTAs running
Shared mode is : 1
GPGPU-Sim uArch: core:  2, cta: 6 initialized @(771,0)
GPGPU-Sim uArch: Shader 1 finished CTA #6 (771,0), 9 CTAs running
Shared mode is : 1
GPGPU-Sim uArch: core:  1, cta: 6 initialized @(772,0)
GPGPU-Sim uArch: Shader 0 finished CTA #5 (775,0), 9 CTAs running
Shared mode is : 1
GPGPU-Sim uArch: core:  0, cta: 5 initialized @(776,0)
GPGPU-Sim uArch: Shader 3 finished CTA #7 (777,0), 9 CTAs running
Shared mode is : 1
GPGPU-Sim uArch: core:  3, cta: 7 initialized @(778,0)
GPGPU-Sim uArch: Shader 5 finished CTA #7 (781,0), 9 CTAs running
Shared mode is : 1
GPGPU-Sim uArch: core:  5, cta: 7 initialized @(782,0)
GPGPU-Sim uArch: Shader 0 finished CTA #6 (784,0), 9 CTAs running
Shared mode is : 1
GPGPU-Sim uArch: core:  0, cta: 6 initialized @(785,0)
GPGPU-Sim uArch: Shader 1 finished CTA #4 (788,0), 9 CTAs running
Shared mode is : 1
GPGPU-Sim uArch: core:  1, cta: 4 initialized @(789,0)
GPGPU-Sim uArch: Shader 4 finished CTA #3 (789,0), 9 CTAs running
Shared mode is : 1
GPGPU-Sim uArch: core:  4, cta: 3 initialized @(790,0)
GPGPU-Sim uArch: Shader 4 finished CTA #1 (790,0), 9 CTAs running
Shared mode is : 1
GPGPU-Sim uArch: core:  4, cta: 1 initialized @(791,0)
GPGPU-Sim uArch: Shader 2 finished CTA #8 (800,0), 9 CTAs running
GPGPU-Sim uArch: Shader 4 finished CTA #0 (800,0), 9 CTAs running
Shared mode is : 1
GPGPU-Sim uArch: core:  2, cta: 8 initialized @(801,0)
Shared mode is : 1
GPGPU-Sim uArch: core:  4, cta: 0 initialized @(801,0)
GPGPU-Sim uArch: Shader 6 finished CTA #8 (801,0), 9 CTAs running
Shared mode is : 1
GPGPU-Sim uArch: core:  6, cta: 8 initialized @(802,0)
GPGPU-Sim uArch: Shader 5 finished CTA #0 (803,0), 9 CTAs running
Shared mode is : 1
GPGPU-Sim uArch: core:  5, cta: 0 initialized @(804,0)
GPGPU-Sim uArch: Shader 11 finished CTA #6 (808,0), 9 CTAs running
Shared mode is : 1
GPGPU-Sim uArch: core: 11, cta: 6 initialized @(809,0)
GPGPU-Sim uArch: Shader 4 finished CTA #4 (809,0), 9 CTAs running
Shared mode is : 1
GPGPU-Sim uArch: core:  4, cta: 4 initialized @(810,0)
GPGPU-Sim uArch: Shader 0 finished CTA #0 (811,0), 9 CTAs running
GPGPU-Sim uArch: Shader 2 finished CTA #0 (811,0), 9 CTAs running
Shared mode is : 1
GPGPU-Sim uArch: core:  0, cta: 0 initialized @(812,0)
Shared mode is : 1
GPGPU-Sim uArch: core:  2, cta: 0 initialized @(812,0)
GPGPU-Sim uArch: Shader 7 finished CTA #0 (814,0), 9 CTAs running
Shared mode is : 1
GPGPU-Sim uArch: core:  7, cta: 0 initialized @(815,0)
GPGPU-Sim uArch: Shader 8 finished CTA #1 (817,0), 9 CTAs running
Shared mode is : 1
GPGPU-Sim uArch: core:  8, cta: 1 initialized @(818,0)
GPGPU-Sim uArch: Shader 3 finished CTA #8 (819,0), 9 CTAs running
Shared mode is : 1
GPGPU-Sim uArch: core:  3, cta: 8 initialized @(820,0)
GPGPU-Sim uArch: Shader 7 finished CTA #1 (823,0), 9 CTAs running
Shared mode is : 1
GPGPU-Sim uArch: core:  7, cta: 1 initialized @(824,0)
GPGPU-Sim uArch: Shader 2 finished CTA #5 (824,0), 9 CTAs running
Shared mode is : 1
GPGPU-Sim uArch: core:  2, cta: 5 initialized @(825,0)
GPGPU-Sim uArch: Shader 12 finished CTA #7 (825,0), 9 CTAs running
Shared mode is : 1
GPGPU-Sim uArch: core: 12, cta: 7 initialized @(826,0)
GPGPU-Sim uArch: Shader 4 finished CTA #2 (828,0), 9 CTAs running
Shared mode is : 1
GPGPU-Sim uArch: core:  4, cta: 2 initialized @(829,0)
GPGPU-Sim uArch: Shader 8 finished CTA #3 (833,0), 9 CTAs running
Shared mode is : 1
GPGPU-Sim uArch: core:  8, cta: 3 initialized @(834,0)
GPGPU-Sim uArch: Shader 1 finished CTA #7 (835,0), 9 CTAs running
Shared mode is : 1
GPGPU-Sim uArch: core:  1, cta: 7 initialized @(836,0)
GPGPU-Sim uArch: Shader 0 finished CTA #7 (836,0), 9 CTAs running
Shared mode is : 1
GPGPU-Sim uArch: core:  0, cta: 7 initialized @(837,0)
GPGPU-Sim uArch: Shader 9 finished CTA #4 (840,0), 9 CTAs running
Shared mode is : 1
GPGPU-Sim uArch: core:  9, cta: 4 initialized @(841,0)
GPGPU-Sim uArch: Shader 7 finished CTA #2 (842,0), 9 CTAs running
GPGPU-Sim uArch: Shader 7 finished CTA #3 (842,0), 8 CTAs running
Shared mode is : 1
GPGPU-Sim uArch: core:  7, cta: 2 initialized @(843,0)
GPGPU-Sim uArch: Shader 11 finished CTA #7 (843,0), 9 CTAs running
Shared mode is : 1
GPGPU-Sim uArch: core: 11, cta: 7 initialized @(844,0)
Shared mode is : 1
GPGPU-Sim uArch: core:  7, cta: 3 initialized @(844,0)
GPGPU-Sim uArch: Shader 6 finished CTA #2 (845,0), 9 CTAs running
Shared mode is : 1
GPGPU-Sim uArch: core:  6, cta: 2 initialized @(846,0)
GPGPU-Sim uArch: Shader 10 finished CTA #6 (846,0), 9 CTAs running
Shared mode is : 1
GPGPU-Sim uArch: core: 10, cta: 6 initialized @(847,0)
GPGPU-Sim uArch: Shader 2 finished CTA #7 (847,0), 9 CTAs running
Shared mode is : 1
GPGPU-Sim uArch: core:  2, cta: 7 initialized @(848,0)
GPGPU-Sim uArch: Shader 8 finished CTA #2 (848,0), 9 CTAs running
Shared mode is : 1
GPGPU-Sim uArch: core:  8, cta: 2 initialized @(849,0)
GPGPU-Sim uArch: Shader 9 finished CTA #6 (849,0), 9 CTAs running
Shared mode is : 1
GPGPU-Sim uArch: core:  9, cta: 6 initialized @(850,0)
GPGPU-Sim uArch: Shader 12 finished CTA #6 (850,0), 9 CTAs running
Shared mode is : 1
GPGPU-Sim uArch: core: 12, cta: 6 initialized @(851,0)
GPGPU-Sim uArch: Shader 5 finished CTA #2 (854,0), 9 CTAs running
GPGPU-Sim uArch: Shader 13 finished CTA #0 (854,0), 9 CTAs running
Shared mode is : 1
GPGPU-Sim uArch: core: 13, cta: 0 initialized @(855,0)
Shared mode is : 1
GPGPU-Sim uArch: core:  5, cta: 2 initialized @(855,0)
GPGPU-Sim uArch: Shader 8 finished CTA #0 (859,0), 9 CTAs running
Shared mode is : 1
GPGPU-Sim uArch: core:  8, cta: 0 initialized @(860,0)
GPGPU-Sim uArch: Shader 3 finished CTA #0 (862,0), 9 CTAs running
GPGPU-Sim uArch: Shader 9 finished CTA #7 (862,0), 9 CTAs running
GPGPU-Sim uArch: Shader 12 finished CTA #1 (862,0), 9 CTAs running
Shared mode is : 1
GPGPU-Sim uArch: core:  9, cta: 7 initialized @(863,0)
Shared mode is : 1
GPGPU-Sim uArch: core: 12, cta: 1 initialized @(863,0)
Shared mode is : 1
GPGPU-Sim uArch: core:  3, cta: 0 initialized @(863,0)
GPGPU-Sim uArch: Shader 6 finished CTA #0 (864,0), 9 CTAs running
Shared mode is : 1
GPGPU-Sim uArch: core:  6, cta: 0 initialized @(865,0)
GPGPU-Sim uArch: Shader 9 finished CTA #5 (867,0), 9 CTAs running
Shared mode is : 1
GPGPU-Sim uArch: core:  9, cta: 5 initialized @(868,0)
GPGPU-Sim uArch: Shader 2 finished CTA #1 (869,0), 9 CTAs running
GPGPU-Sim uArch: Shader 11 finished CTA #1 (869,0), 9 CTAs running
Shared mode is : 1
GPGPU-Sim uArch: core: 11, cta: 1 initialized @(870,0)
Shared mode is : 1
GPGPU-Sim uArch: core:  2, cta: 1 initialized @(870,0)
GPGPU-Sim uArch: Shader 0 finished CTA #1 (870,0), 9 CTAs running
Shared mode is : 1
GPGPU-Sim uArch: core:  0, cta: 1 initialized @(871,0)
GPGPU-Sim uArch: Shader 3 finished CTA #1 (871,0), 9 CTAs running
Shared mode is : 1
GPGPU-Sim uArch: core:  3, cta: 1 initialized @(872,0)
GPGPU-Sim uArch: Shader 5 finished CTA #1 (873,0), 9 CTAs running
GPGPU-Sim uArch: Shader 7 finished CTA #8 (873,0), 9 CTAs running
Shared mode is : 1
GPGPU-Sim uArch: core:  5, cta: 1 initialized @(874,0)
Shared mode is : 1
GPGPU-Sim uArch: core:  7, cta: 8 initialized @(874,0)
GPGPU-Sim uArch: Shader 1 finished CTA #1 (874,0), 9 CTAs running
Shared mode is : 1
GPGPU-Sim uArch: core:  1, cta: 1 initialized @(875,0)
GPGPU-Sim uArch: Shader 8 finished CTA #4 (881,0), 9 CTAs running
GPGPU-Sim uArch: Shader 8 finished CTA #9 (881,0), 8 CTAs running
GPGPU-Sim uArch: Shader 10 finished CTA #7 (881,0), 9 CTAs running
Shared mode is : 1
GPGPU-Sim uArch: core:  8, cta: 4 initialized @(882,0)
Shared mode is : 1
GPGPU-Sim uArch: core: 10, cta: 7 initialized @(882,0)
Shared mode is : 1
GPGPU-Sim uArch: core:  8, cta: 9 initialized @(883,0)
GPGPU-Sim uArch: Shader 13 finished CTA #7 (885,0), 9 CTAs running
Shared mode is : 1
GPGPU-Sim uArch: core: 13, cta: 7 initialized @(886,0)
GPGPU-Sim uArch: Shader 11 finished CTA #5 (886,0), 9 CTAs running
Shared mode is : 1
GPGPU-Sim uArch: core: 11, cta: 5 initialized @(887,0)
GPGPU-Sim uArch: Shader 12 finished CTA #8 (888,0), 9 CTAs running
Shared mode is : 1
GPGPU-Sim uArch: core: 12, cta: 8 initialized @(889,0)
GPGPU-Sim uArch: Shader 10 finished CTA #4 (891,0), 9 CTAs running
Shared mode is : 1
GPGPU-Sim uArch: core: 10, cta: 4 initialized @(892,0)
GPGPU-Sim uArch: Shader 13 finished CTA #8 (894,0), 9 CTAs running
Shared mode is : 1
GPGPU-Sim uArch: core: 13, cta: 8 initialized @(895,0)
GPGPU-Sim uArch: Shader 3 finished CTA #9 (895,0), 9 CTAs running
GPGPU-Sim uArch: Shader 6 finished CTA #1 (895,0), 9 CTAs running
Shared mode is : 1
GPGPU-Sim uArch: core:  3, cta: 9 initialized @(896,0)
Shared mode is : 1
GPGPU-Sim uArch: core:  6, cta: 1 initialized @(896,0)
GPGPU-Sim uArch: Shader 10 finished CTA #5 (901,0), 9 CTAs running
GPGPU-Sim uArch: Shader 11 finished CTA #0 (901,0), 9 CTAs running
Shared mode is : 1
GPGPU-Sim uArch: core: 10, cta: 5 initialized @(902,0)
Shared mode is : 1
GPGPU-Sim uArch: core: 11, cta: 0 initialized @(902,0)
GPGPU-Sim uArch: Shader 7 finished CTA #9 (903,0), 9 CTAs running
Shared mode is : 1
GPGPU-Sim uArch: core:  7, cta: 9 initialized @(904,0)
GPGPU-Sim uArch: Shader 6 finished CTA #7 (904,0), 9 CTAs running
Shared mode is : 1
GPGPU-Sim uArch: core:  6, cta: 7 initialized @(905,0)
GPGPU-Sim uArch: Shader 12 finished CTA #9 (908,0), 9 CTAs running
Shared mode is : 1
GPGPU-Sim uArch: core: 12, cta: 9 initialized @(909,0)
GPGPU-Sim uArch: Shader 13 finished CTA #9 (911,0), 9 CTAs running
Shared mode is : 1
GPGPU-Sim uArch: core: 13, cta: 9 initialized @(912,0)
GPGPU-Sim uArch: Shader 9 finished CTA #0 (912,0), 9 CTAs running
GPGPU-Sim uArch: Shader 9 finished CTA #1 (912,0), 8 CTAs running
GPGPU-Sim uArch: Shader 10 finished CTA #0 (912,0), 9 CTAs running
GPGPU-Sim uArch: Shader 10 finished CTA #1 (912,0), 8 CTAs running
Shared mode is : 1
GPGPU-Sim uArch: core:  9, cta: 0 initialized @(913,0)
Shared mode is : 1
GPGPU-Sim uArch: core: 10, cta: 0 initialized @(913,0)
Shared mode is : 1
GPGPU-Sim uArch: core:  9, cta: 1 initialized @(914,0)
Shared mode is : 1
GPGPU-Sim uArch: core: 10, cta: 1 initialized @(914,0)
GPGPU-Sim uArch: Shader 5 finished CTA #9 (914,0), 9 CTAs running
Shared mode is : 1
GPGPU-Sim uArch: core:  5, cta: 9 initialized @(915,0)
GPGPU-Sim uArch: Shader 11 finished CTA #8 (922,0), 9 CTAs running
Shared mode is : 1
GPGPU-Sim uArch: core: 11, cta: 8 initialized @(923,0)
GPGPU-Sim uArch: Shader 13 finished CTA #2 (924,0), 9 CTAs running
Shared mode is : 1
GPGPU-Sim uArch: core: 13, cta: 2 initialized @(925,0)
GPGPU-Sim uArch: Shader 6 finished CTA #9 (935,0), 9 CTAs running
Shared mode is : 1
GPGPU-Sim uArch: core:  6, cta: 9 initialized @(936,0)
GPGPU-Sim uArch: Shader 12 finished CTA #0 (938,0), 9 CTAs running
Shared mode is : 1
GPGPU-Sim uArch: core: 12, cta: 0 initialized @(939,0)
GPGPU-Sim uArch: Shader 13 finished CTA #1 (985,0), 9 CTAs running
Shared mode is : 1
GPGPU-Sim uArch: core: 13, cta: 1 initialized @(986,0)
GPGPU-Sim uArch: Shader 4 finished CTA #5 (1035,0), 9 CTAs running
Shared mode is : 1
GPGPU-Sim uArch: core:  4, cta: 5 initialized @(1036,0)
GPGPU-Sim uArch: Shader 5 finished CTA #4 (1063,0), 9 CTAs running
Shared mode is : 1
GPGPU-Sim uArch: core:  5, cta: 4 initialized @(1064,0)
GPGPU-Sim uArch: Shader 2 finished CTA #2 (1073,0), 9 CTAs running
Shared mode is : 1
GPGPU-Sim uArch: core:  2, cta: 2 initialized @(1074,0)
GPGPU-Sim uArch: Shader 3 finished CTA #2 (1076,0), 9 CTAs running
Shared mode is : 1
GPGPU-Sim uArch: core:  3, cta: 2 initialized @(1077,0)
GPGPU-Sim uArch: Shader 6 finished CTA #4 (1097,0), 9 CTAs running
Shared mode is : 1
GPGPU-Sim uArch: core:  6, cta: 4 initialized @(1098,0)
GPGPU-Sim uArch: Shader 3 finished CTA #3 (1098,0), 9 CTAs running
Shared mode is : 1
GPGPU-Sim uArch: core:  3, cta: 3 initialized @(1099,0)
GPGPU-Sim uArch: Shader 5 finished CTA #3 (1100,0), 9 CTAs running
Shared mode is : 1
GPGPU-Sim uArch: core:  5, cta: 3 initialized @(1101,0)
GPGPU-Sim uArch: Shader 0 finished CTA #8 (1105,0), 9 CTAs running
Shared mode is : 1
GPGPU-Sim uArch: core:  0, cta: 8 initialized @(1106,0)
GPGPU-Sim uArch: Shader 11 finished CTA #2 (1110,0), 9 CTAs running
Shared mode is : 1
GPGPU-Sim uArch: core: 11, cta: 2 initialized @(1111,0)
GPGPU-Sim uArch: Shader 1 finished CTA #8 (1113,0), 9 CTAs running
Shared mode is : 1
GPGPU-Sim uArch: core:  1, cta: 8 initialized @(1114,0)
GPGPU-Sim uArch: Shader 4 finished CTA #7 (1117,0), 9 CTAs running
Shared mode is : 1
GPGPU-Sim uArch: core:  4, cta: 7 initialized @(1118,0)
GPGPU-Sim uArch: Shader 1 finished CTA #9 (1122,0), 9 CTAs running
Shared mode is : 1
GPGPU-Sim uArch: core:  1, cta: 9 initialized @(1123,0)
GPGPU-Sim uArch: Shader 2 finished CTA #9 (1128,0), 9 CTAs running
Shared mode is : 1
GPGPU-Sim uArch: core:  2, cta: 9 initialized @(1129,0)
GPGPU-Sim uArch: Shader 0 finished CTA #2 (1129,0), 9 CTAs running
Shared mode is : 1
GPGPU-Sim uArch: core:  0, cta: 2 initialized @(1130,0)
GPGPU-Sim uArch: Shader 3 finished CTA #4 (1130,0), 9 CTAs running
Shared mode is : 1
GPGPU-Sim uArch: core:  3, cta: 4 initialized @(1131,0)
GPGPU-Sim uArch: Shader 7 finished CTA #6 (1141,0), 9 CTAs running
Shared mode is : 1
GPGPU-Sim uArch: core:  7, cta: 6 initialized @(1142,0)
GPGPU-Sim uArch: Shader 12 finished CTA #3 (1145,0), 9 CTAs running
Shared mode is : 1
GPGPU-Sim uArch: core: 12, cta: 3 initialized @(1146,0)
GPGPU-Sim uArch: Shader 4 finished CTA #8 (1148,0), 9 CTAs running
Shared mode is : 1
GPGPU-Sim uArch: core:  4, cta: 8 initialized @(1149,0)
GPGPU-Sim uArch: Shader 0 finished CTA #9 (1150,0), 9 CTAs running
Shared mode is : 1
GPGPU-Sim uArch: core:  0, cta: 9 initialized @(1151,0)
GPGPU-Sim uArch: Shader 1 finished CTA #2 (1151,0), 9 CTAs running
GPGPU-Sim uArch: Shader 11 finished CTA #3 (1151,0), 9 CTAs running
Shared mode is : 1
GPGPU-Sim uArch: core:  1, cta: 2 initialized @(1152,0)
Shared mode is : 1
GPGPU-Sim uArch: core: 11, cta: 3 initialized @(1152,0)
GPGPU-Sim uArch: Shader 6 finished CTA #6 (1153,0), 9 CTAs running
Shared mode is : 1
GPGPU-Sim uArch: core:  6, cta: 6 initialized @(1154,0)
GPGPU-Sim uArch: Shader 9 finished CTA #8 (1155,0), 9 CTAs running
Shared mode is : 1
GPGPU-Sim uArch: core:  9, cta: 8 initialized @(1156,0)
GPGPU-Sim uArch: Shader 4 finished CTA #1 (1161,0), 9 CTAs running
Shared mode is : 1
GPGPU-Sim uArch: core:  4, cta: 1 initialized @(1162,0)
GPGPU-Sim uArch: Shader 5 finished CTA #0 (1162,0), 9 CTAs running
Shared mode is : 1
GPGPU-Sim uArch: core:  5, cta: 0 initialized @(1163,0)
GPGPU-Sim uArch: Shader 7 finished CTA #7 (1166,0), 9 CTAs running
Shared mode is : 1
GPGPU-Sim uArch: core:  7, cta: 7 initialized @(1167,0)
GPGPU-Sim uArch: Shader 10 finished CTA #2 (1168,0), 9 CTAs running
Shared mode is : 1
GPGPU-Sim uArch: core: 10, cta: 2 initialized @(1169,0)
GPGPU-Sim uArch: Shader 1 finished CTA #3 (1171,0), 9 CTAs running
GPGPU-Sim uArch: Shader 2 finished CTA #0 (1171,0), 9 CTAs running
Shared mode is : 1
GPGPU-Sim uArch: core:  1, cta: 3 initialized @(1172,0)
Shared mode is : 1
GPGPU-Sim uArch: core:  2, cta: 0 initialized @(1172,0)
GPGPU-Sim uArch: Shader 5 finished CTA #6 (1175,0), 9 CTAs running
Shared mode is : 1
GPGPU-Sim uArch: core:  5, cta: 6 initialized @(1176,0)
GPGPU-Sim uArch: Shader 7 finished CTA #0 (1179,0), 9 CTAs running
Shared mode is : 1
GPGPU-Sim uArch: core:  7, cta: 0 initialized @(1180,0)
GPGPU-Sim uArch: Shader 2 finished CTA #3 (1182,0), 9 CTAs running
Shared mode is : 1
GPGPU-Sim uArch: core:  2, cta: 3 initialized @(1183,0)
GPGPU-Sim uArch: Shader 12 finished CTA #2 (1185,0), 9 CTAs running
Shared mode is : 1
GPGPU-Sim uArch: core: 12, cta: 2 initialized @(1186,0)
GPGPU-Sim uArch: Shader 0 finished CTA #3 (1191,0), 9 CTAs running
GPGPU-Sim uArch: Shader 2 finished CTA #4 (1192,0), 9 CTAs running
GPGPU-Sim uArch: Shader 8 finished CTA #1 (1194,0), 9 CTAs running
GPGPU-Sim uArch: Shader 4 finished CTA #6 (1197,0), 9 CTAs running
GPGPU-Sim uArch: Shader 0 finished CTA #0 (1198,0), 8 CTAs running
GPGPU-Sim uArch: Shader 4 finished CTA #0 (1206,0), 8 CTAs running
GPGPU-Sim uArch: Shader 11 finished CTA #1 (1208,0), 9 CTAs running
GPGPU-Sim uArch: Shader 9 finished CTA #2 (1211,0), 9 CTAs running
GPGPU-Sim uArch: Shader 7 finished CTA #1 (1212,0), 9 CTAs running
GPGPU-Sim uArch: Shader 6 finished CTA #0 (1213,0), 9 CTAs running
GPGPU-Sim uArch: Shader 12 finished CTA #4 (1214,0), 9 CTAs running
GPGPU-Sim uArch: Shader 13 finished CTA #0 (1216,0), 9 CTAs running
GPGPU-Sim uArch: Shader 13 finished CTA #3 (1217,0), 8 CTAs running
GPGPU-Sim uArch: Shader 11 finished CTA #9 (1218,0), 8 CTAs running
GPGPU-Sim uArch: Shader 1 finished CTA #1 (1219,0), 9 CTAs running
GPGPU-Sim uArch: Shader 3 finished CTA #0 (1219,0), 9 CTAs running
GPGPU-Sim uArch: Shader 5 finished CTA #5 (1223,0), 9 CTAs running
GPGPU-Sim uArch: Shader 3 finished CTA #5 (1225,0), 8 CTAs running
GPGPU-Sim uArch: Shader 6 finished CTA #3 (1227,0), 8 CTAs running
GPGPU-Sim uArch: Shader 9 finished CTA #9 (1227,0), 8 CTAs running
GPGPU-Sim uArch: Shader 10 finished CTA #8 (1228,0), 9 CTAs running
GPGPU-Sim uArch: Shader 13 finished CTA #4 (1236,0), 7 CTAs running
GPGPU-Sim uArch: Shader 7 finished CTA #4 (1239,0), 8 CTAs running
GPGPU-Sim uArch: Shader 0 finished CTA #1 (1242,0), 7 CTAs running
GPGPU-Sim uArch: Shader 7 finished CTA #5 (1243,0), 7 CTAs running
GPGPU-Sim uArch: Shader 3 finished CTA #1 (1246,0), 7 CTAs running
GPGPU-Sim uArch: Shader 2 finished CTA #1 (1248,0), 8 CTAs running
GPGPU-Sim uArch: Shader 5 finished CTA #1 (1250,0), 8 CTAs running
GPGPU-Sim uArch: Shader 12 finished CTA #1 (1250,0), 8 CTAs running
GPGPU-Sim uArch: Shader 8 finished CTA #6 (1253,0), 8 CTAs running
GPGPU-Sim uArch: Shader 11 finished CTA #4 (1257,0), 7 CTAs running
GPGPU-Sim uArch: Shader 8 finished CTA #7 (1263,0), 7 CTAs running
GPGPU-Sim uArch: Shader 9 finished CTA #3 (1264,0), 7 CTAs running
GPGPU-Sim uArch: Shader 13 finished CTA #5 (1264,0), 6 CTAs running
GPGPU-Sim uArch: Shader 12 finished CTA #5 (1269,0), 7 CTAs running
GPGPU-Sim uArch: Shader 6 finished CTA #1 (1278,0), 7 CTAs running
GPGPU-Sim uArch: Shader 8 finished CTA #5 (1281,0), 6 CTAs running
GPGPU-Sim uArch: Shader 6 finished CTA #5 (1282,0), 6 CTAs running
GPGPU-Sim uArch: Shader 8 finished CTA #0 (1286,0), 5 CTAs running
GPGPU-Sim uArch: Shader 13 finished CTA #6 (1286,0), 5 CTAs running
GPGPU-Sim uArch: Shader 9 finished CTA #0 (1290,0), 6 CTAs running
GPGPU-Sim uArch: Shader 10 finished CTA #3 (1291,0), 8 CTAs running
GPGPU-Sim uArch: Shader 11 finished CTA #0 (1293,0), 6 CTAs running
GPGPU-Sim uArch: Shader 8 finished CTA #8 (1294,0), 4 CTAs running
GPGPU-Sim uArch: Shader 10 finished CTA #9 (1295,0), 7 CTAs running
GPGPU-Sim uArch: Shader 9 finished CTA #1 (1301,0), 5 CTAs running
GPGPU-Sim uArch: Shader 12 finished CTA #0 (1302,0), 6 CTAs running
GPGPU-Sim uArch: Shader 10 finished CTA #0 (1308,0), 6 CTAs running
GPGPU-Sim uArch: Shader 10 finished CTA #1 (1324,0), 5 CTAs running
GPGPU-Sim uArch: Shader 4 finished CTA #9 (1328,0), 7 CTAs running
GPGPU-Sim uArch: Shader 13 finished CTA #1 (1346,0), 4 CTAs running
GPGPU-Sim uArch: Shader 5 finished CTA #8 (1365,0), 7 CTAs running
GPGPU-Sim uArch: Shader 2 finished CTA #6 (1366,0), 7 CTAs running
GPGPU-Sim uArch: Shader 3 finished CTA #6 (1381,0), 6 CTAs running
GPGPU-Sim uArch: Shader 6 finished CTA #8 (1387,0), 5 CTAs running
GPGPU-Sim uArch: Shader 3 finished CTA #7 (1397,0), 5 CTAs running
GPGPU-Sim uArch: Shader 5 finished CTA #7 (1397,0), 6 CTAs running
GPGPU-Sim uArch: Shader 11 finished CTA #6 (1406,0), 5 CTAs running
GPGPU-Sim uArch: Shader 4 finished CTA #3 (1411,0), 6 CTAs running
GPGPU-Sim uArch: Shader 0 finished CTA #4 (1412,0), 6 CTAs running
GPGPU-Sim uArch: Shader 1 finished CTA #4 (1419,0), 8 CTAs running
GPGPU-Sim uArch: Shader 2 finished CTA #5 (1420,0), 6 CTAs running
GPGPU-Sim uArch: Shader 7 finished CTA #2 (1438,0), 6 CTAs running
GPGPU-Sim uArch: Shader 3 finished CTA #8 (1439,0), 4 CTAs running
GPGPU-Sim uArch: Shader 12 finished CTA #7 (1439,0), 5 CTAs running
GPGPU-Sim uArch: Shader 4 finished CTA #4 (1442,0), 5 CTAs running
GPGPU-Sim uArch: Shader 11 finished CTA #7 (1444,0), 4 CTAs running
GPGPU-Sim uArch: Shader 6 finished CTA #2 (1448,0), 4 CTAs running
GPGPU-Sim uArch: Shader 9 finished CTA #4 (1454,0), 4 CTAs running
GPGPU-Sim uArch: Shader 1 finished CTA #5 (1460,0), 7 CTAs running
GPGPU-Sim uArch: Shader 10 finished CTA #6 (1461,0), 4 CTAs running
GPGPU-Sim uArch: Shader 0 finished CTA #6 (1462,0), 5 CTAs running
GPGPU-Sim uArch: Shader 1 finished CTA #6 (1466,0), 6 CTAs running
GPGPU-Sim uArch: Shader 7 finished CTA #3 (1471,0), 5 CTAs running
GPGPU-Sim uArch: Shader 0 finished CTA #5 (1472,0), 4 CTAs running
GPGPU-Sim uArch: Shader 12 finished CTA #6 (1478,0), 4 CTAs running
GPGPU-Sim uArch: Shader 5 finished CTA #2 (1483,0), 5 CTAs running
GPGPU-Sim uArch: Shader 1 finished CTA #7 (1488,0), 5 CTAs running
GPGPU-Sim uArch: Shader 2 finished CTA #8 (1495,0), 5 CTAs running
GPGPU-Sim uArch: Shader 0 finished CTA #7 (1497,0), 3 CTAs running
GPGPU-Sim uArch: Shader 5 finished CTA #0 (1501,0), 4 CTAs running
GPGPU-Sim uArch: Shader 4 finished CTA #2 (1507,0), 4 CTAs running
GPGPU-Sim uArch: Shader 9 finished CTA #6 (1510,0), 3 CTAs running
GPGPU-Sim uArch: Shader 4 finished CTA #1 (1511,0), 3 CTAs running
GPGPU-Sim uArch: Shader 2 finished CTA #7 (1512,0), 4 CTAs running
GPGPU-Sim uArch: Shader 11 finished CTA #5 (1512,0), 3 CTAs running
GPGPU-Sim uArch: Shader 6 finished CTA #7 (1518,0), 3 CTAs running
GPGPU-Sim uArch: Shader 12 finished CTA #8 (1518,0), 3 CTAs running
GPGPU-Sim uArch: Shader 9 finished CTA #5 (1519,0), 2 CTAs running
GPGPU-Sim uArch: Shader 13 finished CTA #7 (1519,0), 3 CTAs running
GPGPU-Sim uArch: Shader 3 finished CTA #9 (1521,0), 3 CTAs running
GPGPU-Sim uArch: Shader 5 finished CTA #9 (1527,0), 3 CTAs running
GPGPU-Sim uArch: Shader 7 finished CTA #0 (1533,0), 4 CTAs running
GPGPU-Sim uArch: Shader 2 finished CTA #0 (1534,0), 3 CTAs running
GPGPU-Sim uArch: Shader 13 finished CTA #8 (1536,0), 2 CTAs running
GPGPU-Sim uArch: Shader 10 finished CTA #4 (1537,0), 3 CTAs running
GPGPU-Sim uArch: Shader 7 finished CTA #8 (1541,0), 3 CTAs running
GPGPU-Sim uArch: Shader 7 finished CTA #9 (1551,0), 2 CTAs running
GPGPU-Sim uArch: Shader 11 finished CTA #8 (1554,0), 2 CTAs running
GPGPU-Sim uArch: Shader 8 finished CTA #3 (1561,0), 3 CTAs running
GPGPU-Sim uArch: Shader 13 finished CTA #9 (1562,0), 1 CTAs running
GPGPU-Sim uArch: Shader 12 finished CTA #9 (1564,0), 2 CTAs running
GPGPU-Sim uArch: Shader 9 finished CTA #7 (1565,0), 1 CTAs running
GPGPU-Sim uArch: Shader 6 finished CTA #9 (1578,0), 2 CTAs running
GPGPU-Sim uArch: Shader 8 finished CTA #9 (1579,0), 2 CTAs running
GPGPU-Sim uArch: Shader 10 finished CTA #7 (1583,0), 2 CTAs running
GPGPU-Sim uArch: Shader 13 finished CTA #2 (1583,0), 0 CTAs running
GPGPU-Sim uArch: Shader 13 empty (release kernel 1 '_Z6KernelP4NodePiPbS2_S1_S2_i').
GPGPU-Sim uArch: Shader 8 finished CTA #2 (1586,0), 1 CTAs running
GPGPU-Sim uArch: Shader 8 finished CTA #4 (1596,0), 0 CTAs running
GPGPU-Sim uArch: Shader 8 empty (release kernel 1 '_Z6KernelP4NodePiPbS2_S1_S2_i').
GPGPU-Sim uArch: Shader 10 finished CTA #5 (1602,0), 1 CTAs running
GPGPU-Sim uArch: Shader 4 finished CTA #5 (1622,0), 2 CTAs running
GPGPU-Sim uArch: Shader 5 finished CTA #4 (1654,0), 2 CTAs running
GPGPU-Sim uArch: Shader 2 finished CTA #2 (1661,0), 2 CTAs running
GPGPU-Sim uArch: Shader 3 finished CTA #2 (1668,0), 2 CTAs running
GPGPU-Sim uArch: Shader 6 finished CTA #4 (1684,0), 1 CTAs running
GPGPU-Sim uArch: Shader 3 finished CTA #3 (1691,0), 1 CTAs running
GPGPU-Sim uArch: Shader 5 finished CTA #3 (1693,0), 1 CTAs running
GPGPU-Sim uArch: Shader 4 finished CTA #7 (1702,0), 1 CTAs running
GPGPU-Sim uArch: Shader 11 finished CTA #2 (1702,0), 1 CTAs running
GPGPU-Sim uArch: Shader 0 finished CTA #8 (1711,0), 2 CTAs running
GPGPU-Sim uArch: Shader 2 finished CTA #9 (1711,0), 1 CTAs running
GPGPU-Sim uArch: Shader 1 finished CTA #8 (1712,0), 4 CTAs running
GPGPU-Sim uArch: Shader 3 finished CTA #4 (1731,0), 0 CTAs running
GPGPU-Sim uArch: Shader 3 empty (release kernel 1 '_Z6KernelP4NodePiPbS2_S1_S2_i').
GPGPU-Sim uArch: Shader 7 finished CTA #6 (1731,0), 1 CTAs running
GPGPU-Sim uArch: Shader 4 finished CTA #8 (1733,0), 0 CTAs running
GPGPU-Sim uArch: Shader 4 empty (release kernel 1 '_Z6KernelP4NodePiPbS2_S1_S2_i').
GPGPU-Sim uArch: Shader 12 finished CTA #3 (1733,0), 1 CTAs running
GPGPU-Sim uArch: Shader 6 finished CTA #6 (1739,0), 0 CTAs running
GPGPU-Sim uArch: Shader 6 empty (release kernel 1 '_Z6KernelP4NodePiPbS2_S1_S2_i').
GPGPU-Sim uArch: Shader 11 finished CTA #3 (1742,0), 0 CTAs running
GPGPU-Sim uArch: Shader 11 empty (release kernel 1 '_Z6KernelP4NodePiPbS2_S1_S2_i').
GPGPU-Sim uArch: Shader 9 finished CTA #8 (1746,0), 0 CTAs running
GPGPU-Sim uArch: Shader 9 empty (release kernel 1 '_Z6KernelP4NodePiPbS2_S1_S2_i').
GPGPU-Sim uArch: Shader 10 finished CTA #2 (1754,0), 0 CTAs running
GPGPU-Sim uArch: Shader 10 empty (release kernel 1 '_Z6KernelP4NodePiPbS2_S1_S2_i').
GPGPU-Sim uArch: Shader 0 finished CTA #2 (1761,0), 1 CTAs running
GPGPU-Sim uArch: Shader 1 finished CTA #9 (1764,0), 3 CTAs running
GPGPU-Sim uArch: Shader 7 finished CTA #7 (1767,0), 0 CTAs running
GPGPU-Sim uArch: Shader 7 empty (release kernel 1 '_Z6KernelP4NodePiPbS2_S1_S2_i').
GPGPU-Sim uArch: Shader 0 finished CTA #9 (1769,0), 0 CTAs running
GPGPU-Sim uArch: Shader 0 empty (release kernel 1 '_Z6KernelP4NodePiPbS2_S1_S2_i').
GPGPU-Sim uArch: Shader 12 finished CTA #2 (1770,0), 0 CTAs running
GPGPU-Sim uArch: Shader 12 empty (release kernel 1 '_Z6KernelP4NodePiPbS2_S1_S2_i').
GPGPU-Sim uArch: Shader 5 finished CTA #6 (1779,0), 0 CTAs running
GPGPU-Sim uArch: Shader 5 empty (release kernel 1 '_Z6KernelP4NodePiPbS2_S1_S2_i').
GPGPU-Sim uArch: Shader 1 finished CTA #2 (1782,0), 2 CTAs running
GPGPU-Sim uArch: Shader 1 finished CTA #3 (1789,0), 1 CTAs running
GPGPU-Sim uArch: Shader 2 finished CTA #3 (1807,0), 0 CTAs running
GPGPU-Sim uArch: Shader 2 empty (release kernel 1 '_Z6KernelP4NodePiPbS2_S1_S2_i').
GPGPU-Sim uArch: Shader 1 finished CTA #0 (5526,0), 0 CTAs running
GPGPU-Sim uArch: Shader 1 empty (release kernel 1 '_Z6KernelP4NodePiPbS2_S1_S2_i').
GPGPU-Sim uArch: GPU detected kernel '_Z6KernelP4NodePiPbS2_S1_S2_i' finished on shader 1.
kernel_name = _Z6KernelP4NodePiPbS2_S1_S2_i 
kernel_launch_uid = 1 
gpu_sim_cycle = 5527
gpu_sim_insn = 458974
gpu_ipc =      83.0422
gpu_tot_sim_cycle = 5527
gpu_tot_sim_insn = 458974
gpu_tot_ipc =      83.0422
gpu_tot_issued_cta = 0
gpu_stall_dramfull = 111
gpu_stall_icnt2sh    = 489
gpu_total_sim_rate=229487

========= Core cache stats =========
L1I_cache:
	L1I_total_cache_accesses = 8764
	L1I_total_cache_misses = 451
	L1I_total_cache_miss_rate = 0.0515
	L1I_total_cache_pending_hits = 0
	L1I_total_cache_reservation_fails = 3822
L1D_cache:
	L1D_cache_core[0]: Access = 152, Miss = 38, Miss_rate = 0.250, Pending_hits = 114, Reservation_fails = 0
	L1D_cache_core[1]: Access = 220, Miss = 74, Miss_rate = 0.336, Pending_hits = 115, Reservation_fails = 0
	L1D_cache_core[2]: Access = 160, Miss = 40, Miss_rate = 0.250, Pending_hits = 120, Reservation_fails = 0
	L1D_cache_core[3]: Access = 152, Miss = 38, Miss_rate = 0.250, Pending_hits = 114, Reservation_fails = 0
	L1D_cache_core[4]: Access = 160, Miss = 40, Miss_rate = 0.250, Pending_hits = 120, Reservation_fails = 0
	L1D_cache_core[5]: Access = 160, Miss = 40, Miss_rate = 0.250, Pending_hits = 120, Reservation_fails = 0
	L1D_cache_core[6]: Access = 144, Miss = 36, Miss_rate = 0.250, Pending_hits = 108, Reservation_fails = 0
	L1D_cache_core[7]: Access = 152, Miss = 38, Miss_rate = 0.250, Pending_hits = 114, Reservation_fails = 0
	L1D_cache_core[8]: Access = 128, Miss = 32, Miss_rate = 0.250, Pending_hits = 96, Reservation_fails = 0
	L1D_cache_core[9]: Access = 136, Miss = 34, Miss_rate = 0.250, Pending_hits = 102, Reservation_fails = 0
	L1D_cache_core[10]: Access = 136, Miss = 34, Miss_rate = 0.250, Pending_hits = 102, Reservation_fails = 0
	L1D_cache_core[11]: Access = 144, Miss = 36, Miss_rate = 0.250, Pending_hits = 108, Reservation_fails = 0
	L1D_cache_core[12]: Access = 144, Miss = 36, Miss_rate = 0.250, Pending_hits = 108, Reservation_fails = 0
	L1D_cache_core[13]: Access = 128, Miss = 32, Miss_rate = 0.250, Pending_hits = 96, Reservation_fails = 0
	L1D_total_cache_accesses = 2116
	L1D_total_cache_misses = 548
	L1D_total_cache_miss_rate = 0.2590
	L1D_total_cache_pending_hits = 1537
	L1D_total_cache_reservation_fails = 0
	L1D_cache_data_port_util = 0.001
	L1D_cache_fill_port_util = 0.019
L1C_cache:
	L1C_total_cache_accesses = 0
	L1C_total_cache_misses = 0
	L1C_total_cache_pending_hits = 0
	L1C_total_cache_reservation_fails = 0
L1T_cache:
	L1T_total_cache_accesses = 0
	L1T_total_cache_misses = 0
	L1T_total_cache_pending_hits = 0
	L1T_total_cache_reservation_fails = 0

Total_core_cache_stats:
	Total_core_cache_stats_breakdown[GLOBAL_ACC_R][HIT] = 30
	Total_core_cache_stats_breakdown[GLOBAL_ACC_R][HIT_RESERVED] = 1537
	Total_core_cache_stats_breakdown[GLOBAL_ACC_R][MISS] = 523
	Total_core_cache_stats_breakdown[GLOBAL_ACC_W][HIT] = 1
	Total_core_cache_stats_breakdown[GLOBAL_ACC_W][MISS] = 25
	Total_core_cache_stats_breakdown[INST_ACC_R][HIT] = 8313
	Total_core_cache_stats_breakdown[INST_ACC_R][MISS] = 451
	Total_core_cache_stats_breakdown[INST_ACC_R][RESERVATION_FAIL] = 3822
Shader 0 warp_id issue ditsribution:
warp_id:
0, 1, 2, 3, 4, 5, 6, 7, 8, 9, 10, 11, 12, 13, 14, 15, 16, 17, 18, 19, 20, 21, 22, 23, 24, 25, 26, 27, 28, 29, 30, 31, 32, 33, 34, 35, 36, 37, 38, 39, 40, 41, 42, 43, 44, 45, 46, 47, 48, 49, 50, 51, 52, 53, 54, 55, 56, 57, 58, 59, 60, 61, 62, 63, 64, 65, 66, 67, 68, 69, 70, 71, 72, 73, 74, 75, 76, 77, 78, 79, 
distro:
16, 16, 16, 16, 16, 16, 16, 16, 16, 16, 16, 16, 16, 16, 16, 16, 16, 16, 16, 16, 16, 16, 16, 16, 8, 8, 8, 8, 8, 8, 8, 8, 16, 16, 16, 16, 16, 16, 16, 16, 16, 16, 16, 16, 16, 16, 16, 16, 16, 16, 16, 16, 16, 16, 16, 16, 16, 16, 16, 16, 16, 16, 16, 16, 16, 16, 16, 16, 16, 16, 16, 16, 16, 16, 16, 16, 16, 16, 16, 16, 
gpgpu_n_tot_thrd_icount = 531744
gpgpu_n_tot_w_icount = 16617
gpgpu_n_stall_shd_mem = 0
gpgpu_n_mem_read_local = 0
gpgpu_n_mem_write_local = 0
gpgpu_n_mem_read_global = 523
gpgpu_n_mem_write_global = 26
gpgpu_n_mem_texture = 0
gpgpu_n_mem_const = 0
gpgpu_n_load_insn  = 65578
gpgpu_n_store_insn = 26
gpgpu_n_shmem_insn = 8
gpgpu_n_tex_insn = 0
gpgpu_n_const_mem_insn = 0
gpgpu_n_param_mem_insn = 0
gpgpu_n_shmem_bkconflict = 0
gpgpu_n_cache_bkconflict = 0
gpgpu_n_intrawarp_mshr_merge = 0
gpgpu_n_cmem_portconflict = 0
gpgpu_stall_shd_mem[c_mem][bk_conf] = 0
gpgpu_stall_shd_mem[c_mem][mshr_rc] = 0
gpgpu_stall_shd_mem[c_mem][icnt_rc] = 0
gpgpu_stall_shd_mem[c_mem][data_port_stall] = 0
gpgpu_stall_shd_mem[t_mem][mshr_rc] = 0
gpgpu_stall_shd_mem[t_mem][icnt_rc] = 0
gpgpu_stall_shd_mem[t_mem][data_port_stall] = 0
gpgpu_stall_shd_mem[s_mem][bk_conf] = 0
gpgpu_stall_shd_mem[gl_mem][bk_conf] = 0
gpgpu_stall_shd_mem[gl_mem][coal_stall] = 0
gpgpu_stall_shd_mem[gl_mem][data_port_stall] = 0
gpgpu_stall_shd_mem[g_mem_ld][mshr_rc] = 0
gpgpu_stall_shd_mem[g_mem_ld][icnt_rc] = 0
gpgpu_stall_shd_mem[g_mem_ld][wb_icnt_rc] = 0
gpgpu_stall_shd_mem[g_mem_ld][wb_rsrv_fail] = 0
gpgpu_stall_shd_mem[g_mem_st][mshr_rc] = 0
gpgpu_stall_shd_mem[g_mem_st][icnt_rc] = 0
gpgpu_stall_shd_mem[g_mem_st][wb_icnt_rc] = 0
gpgpu_stall_shd_mem[g_mem_st][wb_rsrv_fail] = 0
gpgpu_stall_shd_mem[l_mem_ld][mshr_rc] = 0
gpgpu_stall_shd_mem[l_mem_ld][icnt_rc] = 0
gpgpu_stall_shd_mem[l_mem_ld][wb_icnt_rc] = 0
gpgpu_stall_shd_mem[l_mem_ld][wb_rsrv_fail] = 0
gpgpu_stall_shd_mem[l_mem_st][mshr_rc] = 0
gpgpu_stall_shd_mem[l_mem_st][icnt_rc] = 0
gpgpu_stall_shd_mem[l_mem_ld][wb_icnt_rc] = 0
gpgpu_stall_shd_mem[l_mem_ld][wb_rsrv_fail] = 0
gpu_reg_bank_conflict_stalls = 0
Warp Occupancy Distribution:
Stall:221	W0_Idle:13397	W0_Scoreboard:25877	W1:233	W2:0	W3:0	W4:0	W5:0	W6:0	W7:0	W8:0	W9:0	W10:0	W11:0	W12:0	W13:0	W14:0	W15:0	W16:0	W17:0	W18:0	W19:0	W20:0	W21:0	W22:0	W23:0	W24:0	W25:0	W26:0	W27:0	W28:0	W29:0	W30:0	W31:0	W32:16384
Stall[0]:  9 Stall[1]:  13 Stall[2]:  16 Stall[3]:  14 Stall[4]:  29 Stall[5]:  21 Stall[6]:  12 Stall[7]:  19 Stall[8]:  24 Stall[9]:  13 Stall[10]:  9 Stall[11]:  17 Stall[12]:  9 Stall[13]:  16 
traffic_breakdown_coretomem[GLOBAL_ACC_R] = 4184 {8:523,}
traffic_breakdown_coretomem[GLOBAL_ACC_W] = 1040 {40:26,}
traffic_breakdown_coretomem[INST_ACC_R] = 136 {8:17,}
traffic_breakdown_memtocore[GLOBAL_ACC_R] = 71128 {136:523,}
traffic_breakdown_memtocore[GLOBAL_ACC_W] = 208 {8:26,}
traffic_breakdown_memtocore[INST_ACC_R] = 2312 {136:17,}
Memory Partition 0: 
Cache L2_bank_000:
MSHR contents
MSHR: tag=0x80234400, atomic=0 1 entries : 0x7ff32a4b3220 :  mf: uid= 14712, sid01:w00, part=0, addr=0x80234440, load , size=32, unknown  status = IN_PARTITION_DRAM (5524), 

Cache L2_bank_001:
MSHR contents

In Dram Latency Queue (total = 0): 
DRAM[0]: 16 bks, busW=4 BL=8 CL=12, tRRD=2 tCCD=6, tRCD=12 tRAS=28 tRP=12 tRC=40
n_cmd=7208 n_nop=7019 n_act=7 n_pre=1 n_req=91 n_rd=180 n_write=1 bw_util=0.05022
n_activity=914 dram_eff=0.3961
bk0: 6a 7157i bk1: 0a 7206i bk2: 2a 7186i bk3: 0a 7207i bk4: 0a 7209i bk5: 0a 7209i bk6: 0a 7209i bk7: 0a 7209i bk8: 0a 7209i bk9: 0a 7209i bk10: 40a 7082i bk11: 44a 6973i bk12: 44a 6953i bk13: 44a 7019i bk14: 0a 7205i bk15: 0a 7206i 
dram_util_bins: 0 0 0 0 0 0 0 0 0 0
dram_eff_bins: 0 0 0 0 0 0 0 0 0 0
mrqq: max=11 avg=0.148724
Memory Partition 1: 
Cache L2_bank_002:
MSHR contents

Cache L2_bank_003:
MSHR contents

In Dram Latency Queue (total = 0): 
DRAM[1]: 16 bks, busW=4 BL=8 CL=12, tRRD=2 tCCD=6, tRCD=12 tRAS=28 tRP=12 tRC=40
n_cmd=7208 n_nop=7016 n_act=6 n_pre=0 n_req=93 n_rd=186 n_write=0 bw_util=0.05161
n_activity=964 dram_eff=0.3859
bk0: 4a 7185i bk1: 0a 7205i bk2: 0a 7205i bk3: 0a 7206i bk4: 0a 7207i bk5: 0a 7207i bk6: 0a 7207i bk7: 0a 7208i bk8: 0a 7208i bk9: 0a 7211i bk10: 40a 7086i bk11: 44a 6976i bk12: 48a 7091i bk13: 44a 7060i bk14: 0a 7208i bk15: 6a 7183i 
dram_util_bins: 0 0 0 0 0 0 0 0 0 0
dram_eff_bins: 0 0 0 0 0 0 0 0 0 0
mrqq: max=10 avg=0.134434
Memory Partition 2: 
Cache L2_bank_004:
MSHR contents

Cache L2_bank_005:
MSHR contents

In Dram Latency Queue (total = 0): 
DRAM[2]: 16 bks, busW=4 BL=8 CL=12, tRRD=2 tCCD=6, tRCD=12 tRAS=28 tRP=12 tRC=40
n_cmd=7208 n_nop=7022 n_act=7 n_pre=0 n_req=91 n_rd=176 n_write=3 bw_util=0.04967
n_activity=895 dram_eff=0.4
bk0: 0a 7208i bk1: 0a 7209i bk2: 0a 7209i bk3: 2a 7186i bk4: 0a 7207i bk5: 2a 7191i bk6: 0a 7209i bk7: 0a 7209i bk8: 0a 7209i bk9: 2a 7186i bk10: 40a 7078i bk11: 44a 6993i bk12: 44a 6972i bk13: 42a 7003i bk14: 0a 7206i bk15: 0a 7207i 
dram_util_bins: 0 0 0 0 0 0 0 0 0 0
dram_eff_bins: 0 0 0 0 0 0 0 0 0 0
mrqq: max=8 avg=0.100583
Memory Partition 3: 
Cache L2_bank_006:
MSHR contents

Cache L2_bank_007:
MSHR contents

In Dram Latency Queue (total = 0): 
DRAM[3]: 16 bks, busW=4 BL=8 CL=12, tRRD=2 tCCD=6, tRCD=12 tRAS=28 tRP=12 tRC=40
n_cmd=7208 n_nop=7028 n_act=6 n_pre=0 n_req=88 n_rd=172 n_write=2 bw_util=0.04828
n_activity=839 dram_eff=0.4148
bk0: 0a 7207i bk1: 0a 7208i bk2: 0a 7209i bk3: 2a 7186i bk4: 0a 7208i bk5: 2a 7186i bk6: 0a 7207i bk7: 0a 7207i bk8: 0a 7210i bk9: 0a 7210i bk10: 40a 7083i bk11: 44a 6981i bk12: 44a 6985i bk13: 40a 7046i bk14: 0a 7205i bk15: 0a 7205i 
dram_util_bins: 0 0 0 0 0 0 0 0 0 0
dram_eff_bins: 0 0 0 0 0 0 0 0 0 0
mrqq: max=6 avg=0.0806049
Memory Partition 4: 
Cache L2_bank_008:
MSHR contents

Cache L2_bank_009:
MSHR contents

In Dram Latency Queue (total = 0): 
DRAM[4]: 16 bks, busW=4 BL=8 CL=12, tRRD=2 tCCD=6, tRCD=12 tRAS=28 tRP=12 tRC=40
n_cmd=7208 n_nop=7005 n_act=10 n_pre=3 n_req=97 n_rd=186 n_write=4 bw_util=0.05272
n_activity=1084 dram_eff=0.3506
bk0: 0a 7206i bk1: 2a 7185i bk2: 0a 7206i bk3: 0a 7206i bk4: 0a 7207i bk5: 2a 7186i bk6: 0a 7209i bk7: 0a 7211i bk8: 0a 7213i bk9: 0a 7213i bk10: 48a 7013i bk11: 46a 6971i bk12: 44a 6985i bk13: 40a 7005i bk14: 4a 7183i bk15: 0a 7203i 
dram_util_bins: 0 0 0 0 0 0 0 0 0 0
dram_eff_bins: 0 0 0 0 0 0 0 0 0 0
mrqq: max=6 avg=0.0828246
Memory Partition 5: 
Cache L2_bank_010:
MSHR contents

Cache L2_bank_011:
MSHR contents

In Dram Latency Queue (total = 0): 
DRAM[5]: 16 bks, busW=4 BL=8 CL=12, tRRD=2 tCCD=6, tRCD=12 tRAS=28 tRP=12 tRC=40
n_cmd=7208 n_nop=7029 n_act=5 n_pre=0 n_req=87 n_rd=174 n_write=0 bw_util=0.04828
n_activity=812 dram_eff=0.4286
bk0: 0a 7204i bk1: 0a 7206i bk2: 0a 7206i bk3: 0a 7207i bk4: 0a 7207i bk5: 0a 7208i bk6: 0a 7209i bk7: 0a 7209i bk8: 0a 7210i bk9: 0a 7212i bk10: 44a 7051i bk11: 44a 6984i bk12: 44a 6961i bk13: 40a 7046i bk14: 2a 7189i bk15: 0a 7204i 
dram_util_bins: 0 0 0 0 0 0 0 0 0 0
dram_eff_bins: 0 0 0 0 0 0 0 0 0 0
mrqq: max=10 avg=0.117647

========= L2 cache stats =========
L2_cache_bank[0]: Access = 61, Miss = 46, Miss_rate = 0.754, Pending_hits = 3, Reservation_fails = 116
L2_cache_bank[1]: Access = 44, Miss = 44, Miss_rate = 1.000, Pending_hits = 0, Reservation_fails = 0
L2_cache_bank[2]: Access = 47, Miss = 46, Miss_rate = 0.979, Pending_hits = 0, Reservation_fails = 0
L2_cache_bank[3]: Access = 47, Miss = 47, Miss_rate = 1.000, Pending_hits = 0, Reservation_fails = 0
L2_cache_bank[4]: Access = 42, Miss = 42, Miss_rate = 1.000, Pending_hits = 0, Reservation_fails = 0
L2_cache_bank[5]: Access = 46, Miss = 46, Miss_rate = 1.000, Pending_hits = 0, Reservation_fails = 0
L2_cache_bank[6]: Access = 45, Miss = 42, Miss_rate = 0.933, Pending_hits = 0, Reservation_fails = 0
L2_cache_bank[7]: Access = 46, Miss = 44, Miss_rate = 0.957, Pending_hits = 0, Reservation_fails = 0
L2_cache_bank[8]: Access = 56, Miss = 48, Miss_rate = 0.857, Pending_hits = 0, Reservation_fails = 0
L2_cache_bank[9]: Access = 45, Miss = 45, Miss_rate = 1.000, Pending_hits = 0, Reservation_fails = 0
L2_cache_bank[10]: Access = 45, Miss = 45, Miss_rate = 1.000, Pending_hits = 0, Reservation_fails = 0
L2_cache_bank[11]: Access = 42, Miss = 42, Miss_rate = 1.000, Pending_hits = 0, Reservation_fails = 0
L2_total_cache_accesses = 566
L2_total_cache_misses = 537
L2_total_cache_miss_rate = 0.9488
L2_total_cache_pending_hits = 3
L2_total_cache_reservation_fails = 116
L2_total_cache_breakdown:
	L2_cache_stats_breakdown[GLOBAL_ACC_R][MISS] = 523
	L2_cache_stats_breakdown[GLOBAL_ACC_W][HIT] = 16
	L2_cache_stats_breakdown[GLOBAL_ACC_W][MISS] = 10
	L2_cache_stats_breakdown[INST_ACC_R][HIT] = 10
	L2_cache_stats_breakdown[INST_ACC_R][HIT_RESERVED] = 3
	L2_cache_stats_breakdown[INST_ACC_R][MISS] = 4
	L2_cache_stats_breakdown[INST_ACC_R][RESERVATION_FAIL] = 116
L2_cache_data_port_util = 0.001
L2_cache_fill_port_util = 0.032

icnt_total_pkts_mem_to_simt=2726
icnt_total_pkts_simt_to_mem=592
LD_mem_lat_dist  0 0 0 0 0 0 0 0 0 0 0 0 0 0 0 0 0 0 0 0 0 0 0 0 0 0 0
ST_mem_lat_dist  0 0 0 0 0 0 0 0 0 0 0 0 0 0 0 0 0 0 0 0 0 0 0 0 0 0 0
----------------------------Interconnect-DETAILS--------------------------------
Class 0:
Packet latency average = 10.894
	minimum = 6
	maximum = 56
Network latency average = 10.1157
	minimum = 6
	maximum = 51
Slowest packet = 342
Flit latency average = 9.0214
	minimum = 6
	maximum = 47
Slowest flit = 891
Fragmentation average = 0
	minimum = 0
	maximum = 0
Injected packet rate average = 0.00787741
	minimum = 0.00597069 (at node 8)
	maximum = 0.0142935 (at node 1)
Accepted packet rate average = 0.00787741
	minimum = 0.00597069 (at node 8)
	maximum = 0.0142935 (at node 1)
Injected flit rate average = 0.0230894
	minimum = 0.00597069 (at node 8)
	maximum = 0.0530125 (at node 14)
Accepted flit rate average= 0.0230894
	minimum = 0.00759906 (at node 18)
	maximum = 0.0526506 (at node 1)
Injected packet length average = 2.9311
Accepted packet length average = 2.9311
Total in-flight flits = 0 (0 measured)
====== Overall Traffic Statistics ======
====== Traffic class 0 ======
Packet latency average = 10.894 (1 samples)
	minimum = 6 (1 samples)
	maximum = 56 (1 samples)
Network latency average = 10.1157 (1 samples)
	minimum = 6 (1 samples)
	maximum = 51 (1 samples)
Flit latency average = 9.0214 (1 samples)
	minimum = 6 (1 samples)
	maximum = 47 (1 samples)
Fragmentation average = 0 (1 samples)
	minimum = 0 (1 samples)
	maximum = 0 (1 samples)
Injected packet rate average = 0.00787741 (1 samples)
	minimum = 0.00597069 (1 samples)
	maximum = 0.0142935 (1 samples)
Accepted packet rate average = 0.00787741 (1 samples)
	minimum = 0.00597069 (1 samples)
	maximum = 0.0142935 (1 samples)
Injected flit rate average = 0.0230894 (1 samples)
	minimum = 0.00597069 (1 samples)
	maximum = 0.0530125 (1 samples)
Accepted flit rate average = 0.0230894 (1 samples)
	minimum = 0.00759906 (1 samples)
	maximum = 0.0526506 (1 samples)
Injected packet size average = 2.9311 (1 samples)
Accepted packet size average = 2.9311 (1 samples)
Hops average = 1 (1 samples)
----------------------------END-of-Interconnect-DETAILS-------------------------


gpgpu_simulation_time = 0 days, 0 hrs, 0 min, 2 sec (2 sec)
gpgpu_simulation_rate = 229487 (inst/sec)
gpgpu_simulation_rate = 2763 (cycle/sec)
GPGPU-Sim: synchronize waiting for inactive GPU simulation
GPGPU-Sim API: Stream Manager State
GPGPU-Sim: detected inactive GPU simulation thread

GPGPU-Sim PTX: cudaLaunch for 0x0x403820 (mode=performance simulation) on stream 0
GPGPU-Sim PTX: pushing kernel '_Z6KernelP4NodePiPbS2_S1_S2_i' to stream 0, gridDim= (256,1,1) blockDim = (256,1,1) 
kernel '_Z6KernelP4NodePiPbS2_S1_S2_i' transfer to GPU hardware scheduler
GPGPU-Sim uArch: Shader 13 bind to kernel 2 '_Z6KernelP4NodePiPbS2_S1_S2_i'
Shared mode is : 1
GPGPU-Sim uArch: core: 13, cta: 0 initialized @(1,5527)
GPGPU-Sim uArch: Shader 0 bind to kernel 2 '_Z6KernelP4NodePiPbS2_S1_S2_i'
Shared mode is : 1
GPGPU-Sim uArch: core:  0, cta: 0 initialized @(1,5527)
GPGPU-Sim uArch: Shader 1 bind to kernel 2 '_Z6KernelP4NodePiPbS2_S1_S2_i'
Shared mode is : 1
GPGPU-Sim uArch: core:  1, cta: 0 initialized @(1,5527)
GPGPU-Sim uArch: Shader 2 bind to kernel 2 '_Z6KernelP4NodePiPbS2_S1_S2_i'
Shared mode is : 1
GPGPU-Sim uArch: core:  2, cta: 0 initialized @(1,5527)
GPGPU-Sim uArch: Shader 3 bind to kernel 2 '_Z6KernelP4NodePiPbS2_S1_S2_i'
Shared mode is : 1
GPGPU-Sim uArch: core:  3, cta: 0 initialized @(1,5527)
GPGPU-Sim uArch: Shader 4 bind to kernel 2 '_Z6KernelP4NodePiPbS2_S1_S2_i'
Shared mode is : 1
GPGPU-Sim uArch: core:  4, cta: 0 initialized @(1,5527)
GPGPU-Sim uArch: Shader 5 bind to kernel 2 '_Z6KernelP4NodePiPbS2_S1_S2_i'
Shared mode is : 1
GPGPU-Sim uArch: core:  5, cta: 0 initialized @(1,5527)
GPGPU-Sim uArch: Shader 6 bind to kernel 2 '_Z6KernelP4NodePiPbS2_S1_S2_i'
Shared mode is : 1
GPGPU-Sim uArch: core:  6, cta: 0 initialized @(1,5527)
GPGPU-Sim uArch: Shader 7 bind to kernel 2 '_Z6KernelP4NodePiPbS2_S1_S2_i'
Shared mode is : 1
GPGPU-Sim uArch: core:  7, cta: 0 initialized @(1,5527)
GPGPU-Sim uArch: Shader 8 bind to kernel 2 '_Z6KernelP4NodePiPbS2_S1_S2_i'
Shared mode is : 1
GPGPU-Sim uArch: core:  8, cta: 0 initialized @(1,5527)
GPGPU-Sim uArch: Shader 9 bind to kernel 2 '_Z6KernelP4NodePiPbS2_S1_S2_i'
Shared mode is : 1
GPGPU-Sim uArch: core:  9, cta: 0 initialized @(1,5527)
GPGPU-Sim uArch: Shader 10 bind to kernel 2 '_Z6KernelP4NodePiPbS2_S1_S2_i'
Shared mode is : 1
GPGPU-Sim uArch: core: 10, cta: 0 initialized @(1,5527)
GPGPU-Sim uArch: Shader 11 bind to kernel 2 '_Z6KernelP4NodePiPbS2_S1_S2_i'
Shared mode is : 1
GPGPU-Sim uArch: core: 11, cta: 0 initialized @(1,5527)
GPGPU-Sim uArch: Shader 12 bind to kernel 2 '_Z6KernelP4NodePiPbS2_S1_S2_i'
Shared mode is : 1
GPGPU-Sim uArch: core: 12, cta: 0 initialized @(1,5527)
Shared mode is : 1
GPGPU-Sim uArch: core: 13, cta: 1 initialized @(2,5527)
Shared mode is : 1
GPGPU-Sim uArch: core:  0, cta: 1 initialized @(2,5527)
Shared mode is : 1
GPGPU-Sim uArch: core:  1, cta: 1 initialized @(2,5527)
Shared mode is : 1
GPGPU-Sim uArch: core:  2, cta: 1 initialized @(2,5527)
Shared mode is : 1
GPGPU-Sim uArch: core:  3, cta: 1 initialized @(2,5527)
Shared mode is : 1
GPGPU-Sim uArch: core:  4, cta: 1 initialized @(2,5527)
Shared mode is : 1
GPGPU-Sim uArch: core:  5, cta: 1 initialized @(2,5527)
Shared mode is : 1
GPGPU-Sim uArch: core:  6, cta: 1 initialized @(2,5527)
Shared mode is : 1
GPGPU-Sim uArch: core:  7, cta: 1 initialized @(2,5527)
Shared mode is : 1
GPGPU-Sim uArch: core:  8, cta: 1 initialized @(2,5527)
Shared mode is : 1
GPGPU-Sim uArch: core:  9, cta: 1 initialized @(2,5527)
Shared mode is : 1
GPGPU-Sim uArch: core: 10, cta: 1 initialized @(2,5527)
Shared mode is : 1
GPGPU-Sim uArch: core: 11, cta: 1 initialized @(2,5527)
Shared mode is : 1
GPGPU-Sim uArch: core: 12, cta: 1 initialized @(2,5527)
Shared mode is : 1
GPGPU-Sim uArch: core: 13, cta: 2 initialized @(3,5527)
Shared mode is : 1
GPGPU-Sim uArch: core:  0, cta: 2 initialized @(3,5527)
Shared mode is : 1
GPGPU-Sim uArch: core:  1, cta: 2 initialized @(3,5527)
Shared mode is : 1
GPGPU-Sim uArch: core:  2, cta: 2 initialized @(3,5527)
Shared mode is : 1
GPGPU-Sim uArch: core:  3, cta: 2 initialized @(3,5527)
Shared mode is : 1
GPGPU-Sim uArch: core:  4, cta: 2 initialized @(3,5527)
Shared mode is : 1
GPGPU-Sim uArch: core:  5, cta: 2 initialized @(3,5527)
Shared mode is : 1
GPGPU-Sim uArch: core:  6, cta: 2 initialized @(3,5527)
Shared mode is : 1
GPGPU-Sim uArch: core:  7, cta: 2 initialized @(3,5527)
Shared mode is : 1
GPGPU-Sim uArch: core:  8, cta: 2 initialized @(3,5527)
Shared mode is : 1
GPGPU-Sim uArch: core:  9, cta: 2 initialized @(3,5527)
Shared mode is : 1
GPGPU-Sim uArch: core: 10, cta: 2 initialized @(3,5527)
Shared mode is : 1
GPGPU-Sim uArch: core: 11, cta: 2 initialized @(3,5527)
Shared mode is : 1
GPGPU-Sim uArch: core: 12, cta: 2 initialized @(3,5527)
Shared mode is : 1
GPGPU-Sim uArch: core: 13, cta: 3 initialized @(4,5527)
Shared mode is : 1
GPGPU-Sim uArch: core:  0, cta: 3 initialized @(4,5527)
Shared mode is : 1
GPGPU-Sim uArch: core:  1, cta: 3 initialized @(4,5527)
Shared mode is : 1
GPGPU-Sim uArch: core:  2, cta: 3 initialized @(4,5527)
Shared mode is : 1
GPGPU-Sim uArch: core:  3, cta: 3 initialized @(4,5527)
Shared mode is : 1
GPGPU-Sim uArch: core:  4, cta: 3 initialized @(4,5527)
Shared mode is : 1
GPGPU-Sim uArch: core:  5, cta: 3 initialized @(4,5527)
Shared mode is : 1
GPGPU-Sim uArch: core:  6, cta: 3 initialized @(4,5527)
Shared mode is : 1
GPGPU-Sim uArch: core:  7, cta: 3 initialized @(4,5527)
Shared mode is : 1
GPGPU-Sim uArch: core:  8, cta: 3 initialized @(4,5527)
Shared mode is : 1
GPGPU-Sim uArch: core:  9, cta: 3 initialized @(4,5527)
Shared mode is : 1
GPGPU-Sim uArch: core: 10, cta: 3 initialized @(4,5527)
Shared mode is : 1
GPGPU-Sim uArch: core: 11, cta: 3 initialized @(4,5527)
Shared mode is : 1
GPGPU-Sim uArch: core: 12, cta: 3 initialized @(4,5527)
Shared mode is : 1
GPGPU-Sim uArch: core: 13, cta: 4 initialized @(5,5527)
Shared mode is : 1
GPGPU-Sim uArch: core:  0, cta: 4 initialized @(5,5527)
Shared mode is : 1
GPGPU-Sim uArch: core:  1, cta: 4 initialized @(5,5527)
Shared mode is : 1
GPGPU-Sim uArch: core:  2, cta: 4 initialized @(5,5527)
Shared mode is : 1
GPGPU-Sim uArch: core:  3, cta: 4 initialized @(5,5527)
Shared mode is : 1
GPGPU-Sim uArch: core:  4, cta: 4 initialized @(5,5527)
Shared mode is : 1
GPGPU-Sim uArch: core:  5, cta: 4 initialized @(5,5527)
Shared mode is : 1
GPGPU-Sim uArch: core:  6, cta: 4 initialized @(5,5527)
Shared mode is : 1
GPGPU-Sim uArch: core:  7, cta: 4 initialized @(5,5527)
Shared mode is : 1
GPGPU-Sim uArch: core:  8, cta: 4 initialized @(5,5527)
Shared mode is : 1
GPGPU-Sim uArch: core:  9, cta: 4 initialized @(5,5527)
Shared mode is : 1
GPGPU-Sim uArch: core: 10, cta: 4 initialized @(5,5527)
Shared mode is : 1
GPGPU-Sim uArch: core: 11, cta: 4 initialized @(5,5527)
Shared mode is : 1
[...]
GPGPU-Sim uArch: Shader 6 finished CTA #7 (2288,811518), 2 CTAs running
GPGPU-Sim uArch: Shader 11 finished CTA #8 (2294,811518), 1 CTAs running
GPGPU-Sim uArch: Shader 13 finished CTA #2 (2298,811518), 2 CTAs running
GPGPU-Sim uArch: Shader 6 finished CTA #3 (2319,811518), 1 CTAs running
GPGPU-Sim uArch: Shader 13 finished CTA #6 (2329,811518), 1 CTAs running
GPGPU-Sim uArch: Shader 11 finished CTA #0 (2334,811518), 0 CTAs running
GPGPU-Sim uArch: Shader 11 empty (release kernel 8 '_Z6KernelP4NodePiPbS2_S1_S2_i').
GPGPU-Sim uArch: Shader 10 finished CTA #1 (2388,811518), 1 CTAs running
GPGPU-Sim uArch: Shader 2 finished CTA #8 (2398,811518), 3 CTAs running
GPGPU-Sim uArch: Shader 1 finished CTA #0 (2416,811518), 5 CTAs running
GPGPU-Sim uArch: Shader 2 finished CTA #4 (2429,811518), 2 CTAs running
GPGPU-Sim uArch: Shader 1 finished CTA #8 (2487,811518), 4 CTAs running
GPGPU-Sim uArch: Shader 5 finished CTA #5 (2502,811518), 2 CTAs running
GPGPU-Sim uArch: Shader 8 finished CTA #8 (2503,811518), 1 CTAs running
GPGPU-Sim uArch: Shader 13 finished CTA #9 (2522,811518), 0 CTAs running
GPGPU-Sim uArch: Shader 13 empty (release kernel 8 '_Z6KernelP4NodePiPbS2_S1_S2_i').
GPGPU-Sim uArch: Shader 5 finished CTA #9 (2533,811518), 1 CTAs running
GPGPU-Sim uArch: Shader 8 finished CTA #4 (2534,811518), 0 CTAs running
GPGPU-Sim uArch: Shader 8 empty (release kernel 8 '_Z6KernelP4NodePiPbS2_S1_S2_i').
GPGPU-Sim uArch: Shader 7 finished CTA #6 (2590,811518), 1 CTAs running
GPGPU-Sim uArch: Shader 10 finished CTA #0 (2605,811518), 0 CTAs running
GPGPU-Sim uArch: Shader 10 empty (release kernel 8 '_Z6KernelP4NodePiPbS2_S1_S2_i').
GPGPU-Sim uArch: Shader 5 finished CTA #1 (2611,811518), 0 CTAs running
GPGPU-Sim uArch: Shader 5 empty (release kernel 8 '_Z6KernelP4NodePiPbS2_S1_S2_i').
GPGPU-Sim uArch: Shader 7 finished CTA #2 (2621,811518), 0 CTAs running
GPGPU-Sim uArch: Shader 7 empty (release kernel 8 '_Z6KernelP4NodePiPbS2_S1_S2_i').
GPGPU-Sim uArch: Shader 12 finished CTA #4 (2630,811518), 1 CTAs running
GPGPU-Sim uArch: Shader 1 finished CTA #4 (2661,811518), 3 CTAs running
GPGPU-Sim uArch: Shader 12 finished CTA #8 (2661,811518), 0 CTAs running
GPGPU-Sim uArch: Shader 12 empty (release kernel 8 '_Z6KernelP4NodePiPbS2_S1_S2_i').
GPGPU-Sim uArch: Shader 0 finished CTA #7 (2712,811518), 1 CTAs running
GPGPU-Sim uArch: Shader 0 finished CTA #3 (2886,811518), 0 CTAs running
GPGPU-Sim uArch: Shader 0 empty (release kernel 8 '_Z6KernelP4NodePiPbS2_S1_S2_i').
GPGPU-Sim uArch: Shader 2 finished CTA #6 (2970,811518), 1 CTAs running
GPGPU-Sim uArch: Shader 2 finished CTA #2 (3001,811518), 0 CTAs running
GPGPU-Sim uArch: Shader 2 empty (release kernel 8 '_Z6KernelP4NodePiPbS2_S1_S2_i').
GPGPU-Sim uArch: Shader 1 finished CTA #9 (3017,811518), 2 CTAs running
GPGPU-Sim uArch: Shader 1 finished CTA #5 (3189,811518), 1 CTAs running
GPGPU-Sim uArch: Shader 6 finished CTA #5 (3236,811518), 0 CTAs running
GPGPU-Sim uArch: Shader 6 empty (release kernel 8 '_Z6KernelP4NodePiPbS2_S1_S2_i').
GPGPU-Sim uArch: Shader 1 finished CTA #3 (3720,811518), 0 CTAs running
GPGPU-Sim uArch: Shader 1 empty (release kernel 8 '_Z6KernelP4NodePiPbS2_S1_S2_i').
GPGPU-Sim uArch: GPU detected kernel '_Z6KernelP4NodePiPbS2_S1_S2_i' finished on shader 1.
kernel_name = _Z6KernelP4NodePiPbS2_S1_S2_i 
kernel_launch_uid = 8 
gpu_sim_cycle = 3721
gpu_sim_insn = 466220
gpu_ipc =     125.2943
gpu_tot_sim_cycle = 815239
gpu_tot_sim_insn = 11857326
gpu_tot_ipc =      14.5446
gpu_tot_issued_cta = 0
gpu_stall_dramfull = 1856414
gpu_stall_icnt2sh    = 4959019
gpu_total_sim_rate=25889

========= Core cache stats =========
L1I_cache:
	L1I_total_cache_accesses = 809381
	L1I_total_cache_misses = 531
	L1I_total_cache_miss_rate = 0.0007
	L1I_total_cache_pending_hits = 0
	L1I_total_cache_reservation_fails = 3822
L1D_cache:
	L1D_cache_core[0]: Access = 100632, Miss = 84256, Miss_rate = 0.837, Pending_hits = 6707, Reservation_fails = 651459
	L1D_cache_core[1]: Access = 98715, Miss = 82440, Miss_rate = 0.835, Pending_hits = 6581, Reservation_fails = 650750
	L1D_cache_core[2]: Access = 84645, Miss = 70996, Miss_rate = 0.839, Pending_hits = 5795, Reservation_fails = 599464
	L1D_cache_core[3]: Access = 89638, Miss = 75213, Miss_rate = 0.839, Pending_hits = 6073, Reservation_fails = 622391
	L1D_cache_core[4]: Access = 87568, Miss = 73371, Miss_rate = 0.838, Pending_hits = 5950, Reservation_fails = 610350
	L1D_cache_core[5]: Access = 88915, Miss = 74212, Miss_rate = 0.835, Pending_hits = 5807, Reservation_fails = 621646
	L1D_cache_core[6]: Access = 90622, Miss = 75718, Miss_rate = 0.836, Pending_hits = 6067, Reservation_fails = 627032
	L1D_cache_core[7]: Access = 79916, Miss = 66535, Miss_rate = 0.833, Pending_hits = 5370, Reservation_fails = 566780
	L1D_cache_core[8]: Access = 80709, Miss = 67818, Miss_rate = 0.840, Pending_hits = 5609, Reservation_fails = 581154
	L1D_cache_core[9]: Access = 84031, Miss = 70392, Miss_rate = 0.838, Pending_hits = 5557, Reservation_fails = 600274
	L1D_cache_core[10]: Access = 83305, Miss = 69449, Miss_rate = 0.834, Pending_hits = 5558, Reservation_fails = 593708
	L1D_cache_core[11]: Access = 86198, Miss = 72323, Miss_rate = 0.839, Pending_hits = 5899, Reservation_fails = 608823
	L1D_cache_core[12]: Access = 82766, Miss = 69172, Miss_rate = 0.836, Pending_hits = 5636, Reservation_fails = 591528
	L1D_cache_core[13]: Access = 93257, Miss = 78250, Miss_rate = 0.839, Pending_hits = 6188, Reservation_fails = 630071
	L1D_total_cache_accesses = 1230917
	L1D_total_cache_misses = 1030145
	L1D_total_cache_miss_rate = 0.8369
	L1D_total_cache_pending_hits = 82797
	L1D_total_cache_reservation_fails = 8555430
	L1D_cache_data_port_util = 0.011
	L1D_cache_fill_port_util = 0.060
L1C_cache:
	L1C_total_cache_accesses = 0
	L1C_total_cache_misses = 0
	L1C_total_cache_pending_hits = 0
	L1C_total_cache_reservation_fails = 0
L1T_cache:
	L1T_total_cache_accesses = 0
	L1T_total_cache_misses = 0
	L1T_total_cache_pending_hits = 0
	L1T_total_cache_reservation_fails = 0

Total_core_cache_stats:
	Total_core_cache_stats_breakdown[GLOBAL_ACC_R][HIT] = 114510
	Total_core_cache_stats_breakdown[GLOBAL_ACC_R][HIT_RESERVED] = 82518
	Total_core_cache_stats_breakdown[GLOBAL_ACC_R][MISS] = 620771
	Total_core_cache_stats_breakdown[GLOBAL_ACC_R][RESERVATION_FAIL] = 6289478
	Total_core_cache_stats_breakdown[GLOBAL_ACC_W][HIT] = 3465
	Total_core_cache_stats_breakdown[GLOBAL_ACC_W][HIT_RESERVED] = 279
	Total_core_cache_stats_breakdown[GLOBAL_ACC_W][MISS] = 409374
	Total_core_cache_stats_breakdown[GLOBAL_ACC_W][RESERVATION_FAIL] = 2265952
	Total_core_cache_stats_breakdown[INST_ACC_R][HIT] = 808850
	Total_core_cache_stats_breakdown[INST_ACC_R][MISS] = 531
	Total_core_cache_stats_breakdown[INST_ACC_R][RESERVATION_FAIL] = 3822
Shader 0 warp_id issue ditsribution:
warp_id:
0, 1, 2, 3, 4, 5, 6, 7, 8, 9, 10, 11, 12, 13, 14, 15, 16, 17, 18, 19, 20, 21, 22, 23, 24, 25, 26, 27, 28, 29, 30, 31, 32, 33, 34, 35, 36, 37, 38, 39, 40, 41, 42, 43, 44, 45, 46, 47, 48, 49, 50, 51, 52, 53, 54, 55, 56, 57, 58, 59, 60, 61, 62, 63, 64, 65, 66, 67, 68, 69, 70, 71, 72, 73, 74, 75, 76, 77, 78, 79, 
distro:
1264, 922, 1159, 1003, 1256, 947, 1099, 1315, 693, 813, 1295, 761, 1009, 576, 1284, 765, 1624, 1761, 1880, 1652, 1706, 2096, 1723, 1610, 1406, 1665, 1655, 1612, 1629, 1734, 1596, 1724, 1448, 1833, 1562, 1372, 1470, 1513, 1356, 1437, 1733, 1358, 1547, 1689, 1672, 1949, 1472, 1294, 1944, 1805, 1820, 1679, 2189, 1978, 1827, 1878, 1839, 1709, 1632, 1790, 1655, 1814, 1622, 1679, 1043, 1437, 1558, 1335, 1374, 1605, 1439, 1239, 1445, 1516, 1587, 1409, 1542, 1251, 1117, 1263, 
gpgpu_n_tot_thrd_icount = 48684864
gpgpu_n_tot_w_icount = 1521402
gpgpu_n_stall_shd_mem = 9386947
gpgpu_n_mem_read_local = 0
gpgpu_n_mem_write_local = 0
gpgpu_n_mem_read_global = 620771
gpgpu_n_mem_write_global = 413118
gpgpu_n_mem_texture = 0
gpgpu_n_mem_const = 0
gpgpu_n_load_insn  = 2024919
gpgpu_n_store_insn = 677737
gpgpu_n_shmem_insn = 180461
gpgpu_n_tex_insn = 0
gpgpu_n_const_mem_insn = 0
gpgpu_n_param_mem_insn = 0
gpgpu_n_shmem_bkconflict = 0
gpgpu_n_cache_bkconflict = 0
gpgpu_n_intrawarp_mshr_merge = 0
gpgpu_n_cmem_portconflict = 0
gpgpu_stall_shd_mem[c_mem][bk_conf] = 0
gpgpu_stall_shd_mem[c_mem][mshr_rc] = 0
gpgpu_stall_shd_mem[c_mem][icnt_rc] = 0
gpgpu_stall_shd_mem[c_mem][data_port_stall] = 0
gpgpu_stall_shd_mem[t_mem][mshr_rc] = 0
gpgpu_stall_shd_mem[t_mem][icnt_rc] = 0
gpgpu_stall_shd_mem[t_mem][data_port_stall] = 0
gpgpu_stall_shd_mem[s_mem][bk_conf] = 0
gpgpu_stall_shd_mem[gl_mem][bk_conf] = 0
gpgpu_stall_shd_mem[gl_mem][coal_stall] = 9386947
gpgpu_stall_shd_mem[gl_mem][data_port_stall] = 0
gpgpu_stall_shd_mem[g_mem_ld][mshr_rc] = 0
gpgpu_stall_shd_mem[g_mem_ld][icnt_rc] = 0
gpgpu_stall_shd_mem[g_mem_ld][wb_icnt_rc] = 0
gpgpu_stall_shd_mem[g_mem_ld][wb_rsrv_fail] = 0
gpgpu_stall_shd_mem[g_mem_st][mshr_rc] = 0
gpgpu_stall_shd_mem[g_mem_st][icnt_rc] = 0
gpgpu_stall_shd_mem[g_mem_st][wb_icnt_rc] = 0
gpgpu_stall_shd_mem[g_mem_st][wb_rsrv_fail] = 0
gpgpu_stall_shd_mem[l_mem_ld][mshr_rc] = 0
gpgpu_stall_shd_mem[l_mem_ld][icnt_rc] = 0
gpgpu_stall_shd_mem[l_mem_ld][wb_icnt_rc] = 0
gpgpu_stall_shd_mem[l_mem_ld][wb_rsrv_fail] = 0
gpgpu_stall_shd_mem[l_mem_st][mshr_rc] = 0
gpgpu_stall_shd_mem[l_mem_st][icnt_rc] = 0
gpgpu_stall_shd_mem[l_mem_ld][wb_icnt_rc] = 0
gpgpu_stall_shd_mem[l_mem_ld][wb_rsrv_fail] = 0
gpu_reg_bank_conflict_stalls = 0
Warp Occupancy Distribution:
Stall:15460532	W0_Idle:1170908	W0_Scoreboard:2648856	W1:411181	W2:190271	W3:119467	W4:85809	W5:68457	W6:57775	W7:49962	W8:45807	W9:39720	W10:36058	W11:33481	W12:29501	W13:26666	W14:23445	W15:20612	W16:16759	W17:14638	W18:13800	W19:13050	W20:11664	W21:12100	W22:11268	W23:11835	W24:10398	W25:9964	W26:9185	W27:7288	W28:4414	W29:2906	W30:2103	W31:501	W32:131317
Stall[0]:  1206483 Stall[1]:  1211646 Stall[2]:  1066531 Stall[3]:  1129605 Stall[4]:  1120083 Stall[5]:  1134828 Stall[6]:  1153722 Stall[7]:  995425 Stall[8]:  1026835 Stall[9]:  1062911 Stall[10]:  1053845 Stall[11]:  1081843 Stall[12]:  1061196 Stall[13]:  1155579 
traffic_breakdown_coretomem[GLOBAL_ACC_R] = 4966168 {8:620771,}
traffic_breakdown_coretomem[GLOBAL_ACC_W] = 16545520 {40:412844,72:86,136:188,}
traffic_breakdown_coretomem[INST_ACC_R] = 448 {8:56,}
traffic_breakdown_memtocore[GLOBAL_ACC_R] = 84424856 {136:620771,}
traffic_breakdown_memtocore[GLOBAL_ACC_W] = 3304944 {8:413118,}
traffic_breakdown_memtocore[INST_ACC_R] = 7616 {136:56,}
Memory Partition 0: 
Cache L2_bank_000:
MSHR contents

Cache L2_bank_001:
MSHR contents

In Dram Latency Queue (total = 0): 
DRAM[0]: 16 bks, busW=4 BL=8 CL=12, tRRD=2 tCCD=6, tRCD=12 tRAS=28 tRP=12 tRC=40
n_cmd=1063349 n_nop=1033581 n_act=4165 n_pre=4149 n_req=11396 n_rd=17768 n_write=3686 bw_util=0.04035
n_activity=200964 dram_eff=0.2135
bk0: 1080a 1051464i bk1: 1126a 1050003i bk2: 1090a 1049938i bk3: 1150a 1049972i bk4: 1144a 1049849i bk5: 1136a 1050239i bk6: 1222a 1050025i bk7: 1306a 1047514i bk8: 1196a 1049382i bk9: 1230a 1048412i bk10: 1076a 1051097i bk11: 1098a 1051382i bk12: 1048a 1053060i bk13: 1042a 1053210i bk14: 890a 1056636i bk15: 934a 1056421i 
dram_util_bins: 0 0 0 0 0 0 0 0 0 0
dram_eff_bins: 0 0 0 0 0 0 0 0 0 0
mrqq: max=16 avg=0.0824668
Memory Partition 1: 
Cache L2_bank_002:
MSHR contents

Cache L2_bank_003:
MSHR contents

In Dram Latency Queue (total = 0): 
DRAM[1]: 16 bks, busW=4 BL=8 CL=12, tRRD=2 tCCD=6, tRCD=12 tRAS=28 tRP=12 tRC=40
n_cmd=1063349 n_nop=1031146 n_act=4691 n_pre=4675 n_req=12141 n_rd=18852 n_write=3985 bw_util=0.04295
n_activity=223951 dram_eff=0.2039
bk0: 1128a 1050690i bk1: 1162a 1050735i bk2: 1098a 1050685i bk3: 1178a 1050549i bk4: 1216a 1049439i bk5: 1226a 1048623i bk6: 1384a 1047452i bk7: 1408a 1046740i bk8: 1318a 1047730i bk9: 1242a 1048920i bk10: 1178a 1050192i bk11: 1204a 1049335i bk12: 1070a 1053658i bk13: 1022a 1053888i bk14: 1018a 1056042i bk15: 1000a 1056422i 
dram_util_bins: 0 0 0 0 0 0 0 0 0 0
dram_eff_bins: 0 0 0 0 0 0 0 0 0 0
mrqq: max=10 avg=0.0667147
Memory Partition 2: 
Cache L2_bank_004:
MSHR contents

Cache L2_bank_005:
MSHR contents

In Dram Latency Queue (total = 0): 
DRAM[2]: 16 bks, busW=4 BL=8 CL=12, tRRD=2 tCCD=6, tRCD=12 tRAS=28 tRP=12 tRC=40
n_cmd=1063349 n_nop=1033930 n_act=4117 n_pre=4101 n_req=11257 n_rd=17624 n_write=3577 bw_util=0.03988
n_activity=200024 dram_eff=0.212
bk0: 1126a 1050103i bk1: 1142a 1049340i bk2: 992a 1050917i bk3: 1044a 1050881i bk4: 1096a 1050419i bk5: 1144a 1049892i bk6: 1152a 1049554i bk7: 1160a 1050003i bk8: 1266a 1048209i bk9: 1188a 1048980i bk10: 1124a 1050310i bk11: 1156a 1050310i bk12: 1112a 1052461i bk13: 1086a 1052983i bk14: 940a 1056567i bk15: 896a 1056727i 
dram_util_bins: 0 0 0 0 0 0 0 0 0 0
dram_eff_bins: 0 0 0 0 0 0 0 0 0 0
mrqq: max=16 avg=0.0874398
Memory Partition 3: 
Cache L2_bank_006:
MSHR contents

Cache L2_bank_007:
MSHR contents

In Dram Latency Queue (total = 0): 
DRAM[3]: 16 bks, busW=4 BL=8 CL=12, tRRD=2 tCCD=6, tRCD=12 tRAS=28 tRP=12 tRC=40
n_cmd=1063349 n_nop=1032256 n_act=4541 n_pre=4525 n_req=11712 n_rd=18220 n_write=3807 bw_util=0.04143
n_activity=215045 dram_eff=0.2049
bk0: 1158a 1050037i bk1: 1210a 1049012i bk2: 1106a 1050135i bk3: 1082a 1049809i bk4: 1204a 1048890i bk5: 1234a 1048452i bk6: 1292a 1048935i bk7: 1232a 1048207i bk8: 1184a 1049152i bk9: 1246a 1048288i bk10: 1122a 1050747i bk11: 1136a 1050493i bk12: 1062a 1054041i bk13: 1072a 1054146i bk14: 980a 1056397i bk15: 900a 1057074i 
dram_util_bins: 0 0 0 0 0 0 0 0 0 0
dram_eff_bins: 0 0 0 0 0 0 0 0 0 0
mrqq: max=16 avg=0.0675263
Memory Partition 4: 
Cache L2_bank_008:
MSHR contents

Cache L2_bank_009:
MSHR contents

In Dram Latency Queue (total = 0): 
DRAM[4]: 16 bks, busW=4 BL=8 CL=12, tRRD=2 tCCD=6, tRCD=12 tRAS=28 tRP=12 tRC=40
n_cmd=1063349 n_nop=1033906 n_act=4047 n_pre=4031 n_req=11373 n_rd=17544 n_write=3821 bw_util=0.04018
n_activity=206443 dram_eff=0.207
bk0: 1028a 1051573i bk1: 1052a 1051425i bk2: 1116a 1049745i bk3: 1088a 1050200i bk4: 1062a 1051252i bk5: 1084a 1050839i bk6: 1314a 1047136i bk7: 1250a 1047392i bk8: 1206a 1048723i bk9: 1236a 1048879i bk10: 1140a 1048632i bk11: 1132a 1050517i bk12: 1006a 1053770i bk13: 990a 1054684i bk14: 962a 1056346i bk15: 878a 1057478i 
dram_util_bins: 0 0 0 0 0 0 0 0 0 0
dram_eff_bins: 0 0 0 0 0 0 0 0 0 0
mrqq: max=16 avg=0.0914037
Memory Partition 5: 
Cache L2_bank_010:
MSHR contents

Cache L2_bank_011:
MSHR contents

In Dram Latency Queue (total = 0): 
DRAM[5]: 16 bks, busW=4 BL=8 CL=12, tRRD=2 tCCD=6, tRCD=12 tRAS=28 tRP=12 tRC=40
n_cmd=1063349 n_nop=1032627 n_act=4445 n_pre=4429 n_req=11623 n_rd=18072 n_write=3776 bw_util=0.04109
n_activity=212334 dram_eff=0.2058
bk0: 1170a 1049625i bk1: 1100a 1050924i bk2: 1154a 1049381i bk3: 1126a 1050336i bk4: 1202a 1049810i bk5: 1212a 1048943i bk6: 1296a 1048521i bk7: 1320a 1047519i bk8: 1246a 1048066i bk9: 1166a 1049381i bk10: 1166a 1049769i bk11: 1104a 1050166i bk12: 1006a 1054331i bk13: 972a 1054445i bk14: 922a 1057687i bk15: 910a 1057443i 
dram_util_bins: 0 0 0 0 0 0 0 0 0 0
dram_eff_bins: 0 0 0 0 0 0 0 0 0 0
mrqq: max=16 avg=0.0712946

========= L2 cache stats =========
L2_cache_bank[0]: Access = 81699, Miss = 4373, Miss_rate = 0.054, Pending_hits = 26, Reservation_fails = 295
L2_cache_bank[1]: Access = 83353, Miss = 4511, Miss_rate = 0.054, Pending_hits = 17, Reservation_fails = 296
L2_cache_bank[2]: Access = 81352, Miss = 4705, Miss_rate = 0.058, Pending_hits = 14, Reservation_fails = 3
L2_cache_bank[3]: Access = 83798, Miss = 4721, Miss_rate = 0.056, Pending_hits = 13, Reservation_fails = 0
L2_cache_bank[4]: Access = 81699, Miss = 4404, Miss_rate = 0.054, Pending_hits = 18, Reservation_fails = 163
L2_cache_bank[5]: Access = 83860, Miss = 4408, Miss_rate = 0.053, Pending_hits = 17, Reservation_fails = 118
L2_cache_bank[6]: Access = 81970, Miss = 4554, Miss_rate = 0.056, Pending_hits = 12, Reservation_fails = 1
L2_cache_bank[7]: Access = 83449, Miss = 4556, Miss_rate = 0.055, Pending_hits = 11, Reservation_fails = 0
L2_cache_bank[8]: Access = 123167, Miss = 4417, Miss_rate = 0.036, Pending_hits = 12, Reservation_fails = 495
L2_cache_bank[9]: Access = 83525, Miss = 4355, Miss_rate = 0.052, Pending_hits = 10, Reservation_fails = 351
L2_cache_bank[10]: Access = 82154, Miss = 4581, Miss_rate = 0.056, Pending_hits = 15, Reservation_fails = 1
L2_cache_bank[11]: Access = 83919, Miss = 4455, Miss_rate = 0.053, Pending_hits = 10, Reservation_fails = 1
L2_total_cache_accesses = 1033945
L2_total_cache_misses = 54040
L2_total_cache_miss_rate = 0.0523
L2_total_cache_pending_hits = 175
L2_total_cache_reservation_fails = 1724
L2_total_cache_breakdown:
	L2_cache_stats_breakdown[GLOBAL_ACC_R][HIT] = 574842
	L2_cache_stats_breakdown[GLOBAL_ACC_R][HIT_RESERVED] = 25
	L2_cache_stats_breakdown[GLOBAL_ACC_R][MISS] = 45904
	L2_cache_stats_breakdown[GLOBAL_ACC_R][RESERVATION_FAIL] = 1596
	L2_cache_stats_breakdown[GLOBAL_ACC_W][HIT] = 404839
	L2_cache_stats_breakdown[GLOBAL_ACC_W][HIT_RESERVED] = 147
	L2_cache_stats_breakdown[GLOBAL_ACC_W][MISS] = 8132
	L2_cache_stats_breakdown[GLOBAL_ACC_W][RESERVATION_FAIL] = 12
	L2_cache_stats_breakdown[INST_ACC_R][HIT] = 49
	L2_cache_stats_breakdown[INST_ACC_R][HIT_RESERVED] = 3
	L2_cache_stats_breakdown[INST_ACC_R][MISS] = 4
	L2_cache_stats_breakdown[INST_ACC_R][RESERVATION_FAIL] = 116
L2_cache_data_port_util = 0.279
L2_cache_fill_port_util = 0.022

icnt_total_pkts_mem_to_simt=3517253
icnt_total_pkts_simt_to_mem=1447713
LD_mem_lat_dist  0 0 0 0 0 0 0 0 0 0 0 0 0 0 0 0 0 0 0 0 0 0 0 0 0 0 0
ST_mem_lat_dist  0 0 0 0 0 0 0 0 0 0 0 0 0 0 0 0 0 0 0 0 0 0 0 0 0 0 0
----------------------------Interconnect-DETAILS--------------------------------
Class 0:
Packet latency average = 11.3373
	minimum = 6
	maximum = 61
Network latency average = 10.3517
	minimum = 6
	maximum = 51
Slowest packet = 2065200
Flit latency average = 9.04297
	minimum = 6
	maximum = 47
Slowest flit = 4960551
Fragmentation average = 0
	minimum = 0
	maximum = 0
Injected packet rate average = 0.0302441
	minimum = 0.0220371 (at node 9)
	maximum = 0.041118 (at node 2)
Accepted packet rate average = 0.0302441
	minimum = 0.0220371 (at node 9)
	maximum = 0.041118 (at node 2)
Injected flit rate average = 0.0834763
	minimum = 0.0257995 (at node 9)
	maximum = 0.165278 (at node 17)
Accepted flit rate average= 0.0834763
	minimum = 0.0319807 (at node 25)
	maximum = 0.17764 (at node 2)
Injected packet length average = 2.76008
Accepted packet length average = 2.76008
Total in-flight flits = 0 (0 measured)
====== Overall Traffic Statistics ======
====== Traffic class 0 ======
Packet latency average = 34.6652 (8 samples)
	minimum = 6 (8 samples)
	maximum = 383.5 (8 samples)
Network latency average = 22.5504 (8 samples)
	minimum = 6 (8 samples)
	maximum = 250.5 (8 samples)
Flit latency average = 17.3667 (8 samples)
	minimum = 6 (8 samples)
	maximum = 248.25 (8 samples)
Fragmentation average = 0.0331875 (8 samples)
	minimum = 0 (8 samples)
	maximum = 170.875 (8 samples)
Injected packet rate average = 0.0525872 (8 samples)
	minimum = 0.0390909 (8 samples)
	maximum = 0.0927008 (8 samples)
Accepted packet rate average = 0.0525872 (8 samples)
	minimum = 0.0390909 (8 samples)
	maximum = 0.0927008 (8 samples)
Injected flit rate average = 0.129581 (8 samples)
	minimum = 0.0519198 (8 samples)
	maximum = 0.243485 (8 samples)
Accepted flit rate average = 0.129581 (8 samples)
	minimum = 0.0678153 (8 samples)
	maximum = 0.2355 (8 samples)
Injected packet size average = 2.46411 (8 samples)
Accepted packet size average = 2.46411 (8 samples)
Hops average = 1 (8 samples)
----------------------------END-of-Interconnect-DETAILS-------------------------


gpgpu_simulation_time = 0 days, 0 hrs, 7 min, 38 sec (458 sec)
gpgpu_simulation_rate = 25889 (inst/sec)
gpgpu_simulation_rate = 1779 (cycle/sec)
GPGPU-Sim: synchronize waiting for inactive GPU simulation
GPGPU-Sim API: Stream Manager State
GPGPU-Sim: detected inactive GPU simulation thread
Kernel Executed 8 times
Processing time: 457566.937500 (ms)
Result stored in result.txt
