

        *** GPGPU-Sim Simulator Version 3.2.2  [build 17315] ***


GPGPU-Sim PTX: simulation mode 0 (can change with PTX_SIM_MODE_FUNC environment variable:
               1=functional simulation only, 0=detailed performance simulator)
GPGPU-Sim: Configuration options:

-network_mode                           1 # Interconnection network mode
-inter_config_file   config_fermi_islip.icnt # Interconnection network config file
-gpgpu_ptx_use_cuobjdump                    1 # Use cuobjdump to extract ptx and sass from binaries
-gpgpu_experimental_lib_support                    0 # Try to extract code from cuda libraries [Broken because of unknown cudaGetExportTable]
-gpgpu_ptx_convert_to_ptxplus                    1 # Convert SASS (native ISA) to ptxplus and run ptxplus
-gpgpu_ptx_force_max_capability                   20 # Force maximum compute capability
-gpgpu_ptx_inst_debug_to_file                    0 # Dump executed instructions' debug information to file
-gpgpu_ptx_inst_debug_file       inst_debug.txt # Executed instructions' debug output file
-gpgpu_ptx_inst_debug_thread_uid                    1 # Thread UID for executed instructions' debug output
-gpgpu_simd_model                       1 # 1 = post-dominator
-gpgpu_shader_core_pipeline              3072:32 # shader core pipeline config, i.e., {<nthread>:<warpsize>}
-gpgpu_tex_cache:l1  4:128:24,L:R:m:N,F:128:4,128:2 # per-shader L1 texture cache  (READ-ONLY) config  {<nsets>:<bsize>:<assoc>,<rep>:<wr>:<alloc>:<wr_alloc>,<mshr>:<N>:<merge>,<mq>:<rf>}
-gpgpu_const_cache:l1 64:64:2,L:R:f:N,A:2:32,4 # per-shader L1 constant memory cache  (READ-ONLY) config  {<nsets>:<bsize>:<assoc>,<rep>:<wr>:<alloc>:<wr_alloc>,<mshr>:<N>:<merge>,<mq>} 
-gpgpu_cache:il1     4:128:4,L:R:f:N,A:2:32,4 # shader L1 instruction cache config  {<nsets>:<bsize>:<assoc>,<rep>:<wr>:<alloc>:<wr_alloc>,<mshr>:<N>:<merge>,<mq>} 
-gpgpu_cache:dl1     32:128:4,L:L:m:N,A:32:8,8 # per-shader L1 data cache config  {<nsets>:<bsize>:<assoc>,<rep>:<wr>:<alloc>:<wr_alloc>,<mshr>:<N>:<merge>,<mq> | none}
-gpgpu_cache:dl1PrefL1                 none # per-shader L1 data cache config  {<nsets>:<bsize>:<assoc>,<rep>:<wr>:<alloc>:<wr_alloc>,<mshr>:<N>:<merge>,<mq> | none}
-gpgpu_cache:dl1PreShared                 none # per-shader L1 data cache config  {<nsets>:<bsize>:<assoc>,<rep>:<wr>:<alloc>:<wr_alloc>,<mshr>:<N>:<merge>,<mq> | none}
-gmem_skip_L1D                          0 # global memory access skip L1D cache (implements -Xptxas -dlcm=cg, default=no skip)
-gpgpu_perfect_mem                      0 # enable perfect memory mode (no cache miss)
-n_regfile_gating_group                    4 # group of lanes that should be read/written together)
-gpgpu_clock_gated_reg_file                    0 # enable clock gated reg file for power calculations
-gpgpu_clock_gated_lanes                    0 # enable clock gated lanes for power calculations
-gpgpu_shader_registers                32768 # Number of registers per shader core. Limits number of concurrent CTAs. (default 8192)
-gpgpu_shader_cta                      16 # Maximum number of concurrent CTAs in shader (default 8)
-gpgpu_n_clusters                      14 # number of processing clusters
-gpgpu_n_cores_per_cluster                    1 # number of simd cores per cluster
-gpgpu_n_cluster_ejection_buffer_size                    8 # number of packets in ejection buffer
-gpgpu_n_ldst_response_buffer_size                    2 # number of response packets in ld/st unit ejection buffer
-gpgpu_shmem_size                   16384 # Size of shared memory per shader core (default 16kB)
-gpgpu_shmem_size                   49152 # Size of shared memory per shader core (default 16kB)
-gpgpu_shmem_size_PrefL1                16384 # Size of shared memory per shader core (default 16kB)
-gpgpu_shmem_size_PrefShared                16384 # Size of shared memory per shader core (default 16kB)
-gpgpu_shmem_num_banks                   32 # Number of banks in the shared memory in each shader core (default 16)
-gpgpu_shmem_limited_broadcast                    0 # Limit shared memory to do one broadcast per cycle (default on)
-gpgpu_shmem_warp_parts                    1 # Number of portions a warp is divided into for shared memory bank conflict check 
-gpgpu_warpdistro_shader                   -1 # Specify which shader core to collect the warp size distribution from
-gpgpu_warp_issue_shader                    0 # Specify which shader core to collect the warp issue distribution from
-gpgpu_local_mem_map                    1 # Mapping from local memory space address to simulated GPU physical address space (default = enabled)
-gpgpu_num_reg_banks                   16 # Number of register banks (default = 8)
-gpgpu_reg_bank_use_warp_id                    0 # Use warp ID in mapping registers to banks (default = off)
-gpgpu_operand_collector_num_units_sp                    6 # number of collector units (default = 4)
-gpgpu_operand_collector_num_units_sfu                    8 # number of collector units (default = 4)
-gpgpu_operand_collector_num_units_mem                    2 # number of collector units (default = 2)
-gpgpu_operand_collector_num_units_gen                    0 # number of collector units (default = 0)
-gpgpu_operand_collector_num_in_ports_sp                    2 # number of collector unit in ports (default = 1)
-gpgpu_operand_collector_num_in_ports_sfu                    1 # number of collector unit in ports (default = 1)
-gpgpu_operand_collector_num_in_ports_mem                    1 # number of collector unit in ports (default = 1)
-gpgpu_operand_collector_num_in_ports_gen                    0 # number of collector unit in ports (default = 0)
-gpgpu_operand_collector_num_out_ports_sp                    2 # number of collector unit in ports (default = 1)
-gpgpu_operand_collector_num_out_ports_sfu                    1 # number of collector unit in ports (default = 1)
-gpgpu_operand_collector_num_out_ports_mem                    1 # number of collector unit in ports (default = 1)
-gpgpu_operand_collector_num_out_ports_gen                    0 # number of collector unit in ports (default = 0)
-gpgpu_coalesce_arch                   13 # Coalescing arch (default = 13, anything else is off for now)
-gpgpu_num_sched_per_core                    2 # Number of warp schedulers per core
-gpgpu_max_insn_issue_per_warp                    1 # Max number of instructions that can be issued per warp in one cycle by scheduler
-gpgpu_simt_core_sim_order                    1 # Select the simulation order of cores in a cluster (0=Fix, 1=Round-Robin)
-gpgpu_pipeline_widths        2,1,1,2,1,1,2 # Pipeline widths ID_OC_SP,ID_OC_SFU,ID_OC_MEM,OC_EX_SP,OC_EX_SFU,OC_EX_MEM,EX_WB
-gpgpu_num_sp_units                     2 # Number of SP units (default=1)
-gpgpu_num_sfu_units                    1 # Number of SF units (default=1)
-gpgpu_num_mem_units                    1 # Number if ldst units (default=1) WARNING: not hooked up to anything
-gpgpu_scheduler                      owf # Scheduler configuration: < lrr | gto | two_level_active > If two_level_active:<num_active_warps>:<inner_prioritization>:<outer_prioritization>For complete list of prioritization values see shader.h enum scheduler_prioritization_typeDefault: gto
-gpgpu_reg_sharing_approach                    4 # Approach used register sharing (default=3)
-gpgpu_reg_share_thersh_hold                  0.1 # Thresh hold factor used for sharing (default=0.5)
-gpgpu_dram_scheduler                    1 # 0 = fifo, 1 = FR-FCFS (defaul)
-gpgpu_dram_partition_queues              8:8:8:8 # i2$:$2d:d2$:$2i
-l2_ideal                               0 # Use a ideal L2 cache that always hit
-gpgpu_cache:dl2     64:128:8,L:B:m:W,A:32:4,4:0,32 # unified banked L2 data cache config  {<nsets>:<bsize>:<assoc>,<rep>:<wr>:<alloc>:<wr_alloc>,<mshr>:<N>:<merge>,<mq>}
-gpgpu_cache:dl2_texture_only                    0 # L2 cache used for texture only
-gpgpu_n_mem                            6 # number of memory modules (e.g. memory controllers) in gpu
-gpgpu_n_sub_partition_per_mchannel                    2 # number of memory subpartition in each memory module
-gpgpu_n_mem_per_ctrlr                    2 # number of memory chips per memory controller
-gpgpu_memlatency_stat                    0 # track and display latency statistics 0x2 enables MC, 0x4 enables queue logs
-gpgpu_frfcfs_dram_sched_queue_size                   16 # 0 = unlimited (default); # entries per chip
-gpgpu_dram_return_queue_size                  114 # 0 = unlimited (default); # entries per chip
-gpgpu_dram_buswidth                    4 # default = 4 bytes (8 bytes per cycle at DDR)
-gpgpu_dram_burst_length                    8 # Burst length of each DRAM request (default = 4 data bus cycle)
-dram_data_command_freq_ratio                    4 # Frequency ratio between DRAM data bus and command bus (default = 2 times, i.e. DDR)
-gpgpu_dram_timing_opt nbk=16:CCD=2:RRD=6:RCD=12:RAS=28:RP=12:RC=40: CL=12:WL=4:CDLR=5:WR=12:nbkgrp=4:CCDL=3:RTPL=2 # DRAM timing parameters = {nbk:tCCD:tRRD:tRCD:tRAS:tRP:tRC:CL:WL:tCDLR:tWR:nbkgrp:tCCDL:tRTPL}
-rop_latency                          120 # ROP queue latency (default 85)
-dram_latency                         100 # DRAM latency (default 30)
-gpgpu_mem_addr_mapping dramid@8;00000000.00000000.00000000.00000000.0000RRRR.RRRRRRRR.BBBCCCCB.CCSSSSSS # mapping memory address to dram model {dramid@<start bit>;<memory address map>}
-gpgpu_mem_addr_test                    0 # run sweep test to check address mapping for aliased address
-gpgpu_mem_address_mask                    1 # 0 = old addressing mask, 1 = new addressing mask, 2 = new add. mask + flipped bank sel and chip sel bits
-gpuwattch_xml_file         gpuwattch.xml # GPUWattch XML file
-power_simulation_enabled                    0 # Turn on power simulator (1=On, 0=Off)
-power_per_cycle_dump                    0 # Dump detailed power output each cycle
-power_trace_enabled                    0 # produce a file for the power trace (1=On, 0=Off)
-power_trace_zlevel                     6 # Compression level of the power trace output log (0=no comp, 9=highest)
-steady_power_levels_enabled                    0 # produce a file for the steady power levels (1=On, 0=Off)
-steady_state_definition                  8:4 # allowed deviation:number of samples
-gpgpu_max_cycle                        0 # terminates gpu simulation early (0 = no limit)
-gpgpu_max_insn                         0 # terminates gpu simulation early (0 = no limit)
-gpgpu_max_cta                          0 # terminates gpu simulation early (0 = no limit)
-gpgpu_runtime_stat             5000000:0 # display runtime statistics such as dram utilization {<freq>:<flag>}
-liveness_message_freq                    1 # Minimum number of seconds between simulation liveness messages (0 = always print)
-gpgpu_flush_l1_cache                    0 # Flush L1 cache at the end of each kernel call
-gpgpu_flush_l2_cache                    0 # Flush L2 cache at the end of each kernel call
-gpgpu_deadlock_detect                    1 # Stop the simulation at deadlock (1=on (default), 0=off)
-gpgpu_ptx_instruction_classification                    0 # if enabled will classify ptx instruction types per kernel (Max 255 kernels now)
-gpgpu_ptx_sim_mode                     0 # Select between Performance (default) or Functional simulation (1)
-gpgpu_clock_domains 575.0:575.0:575.0:750.0 # Clock Domain Frequencies in MhZ {<Core Clock>:<ICNT Clock>:<L2 Clock>:<DRAM Clock>}
-gpgpu_max_concurrent_kernel                    8 # maximum kernels that can run concurrently on GPU
-gpgpu_cflog_interval                    0 # Interval between each snapshot in control flow logger
-visualizer_enabled                     0 # Turn on visualizer output (1=On, 0=Off)
-visualizer_outputfile                 NULL # Specifies the output log file for visualizer
-visualizer_zlevel                      6 # Compression level of the visualizer output log (0=no comp, 9=highest)
-trace_enabled                          0 # Turn on traces
-trace_components                    none # comma seperated list of traces to enable. Complete list found in trace_streams.tup. Default none
-trace_sampling_core                    0 # The core which is printed using CORE_DPRINTF. Default 0
-trace_sampling_memory_partition                   -1 # The memory partition which is printed using MEMPART_DPRINTF. Default -1 (i.e. all)
-enable_ptx_file_line_stats                    0 # Turn on PTX source line statistic profiling. (1 = On)
-ptx_line_stats_filename gpgpu_inst_stats.txt # Output file for PTX source line statistics.
-save_embedded_ptx                      0 # saves ptx files embedded in binary as <n>.ptx
-keep                                   0 # keep intermediate files created by GPGPU-Sim when interfacing with external programs
-gpgpu_ptx_save_converted_ptxplus                    1 # Saved converted ptxplus to a file
-ptx_opcode_latency_int         4,13,4,5,145 # Opcode latencies for integers <ADD,MAX,MUL,MAD,DIV>Default 1,1,19,25,145
-ptx_opcode_latency_fp          4,13,4,5,39 # Opcode latencies for single precision floating points <ADD,MAX,MUL,MAD,DIV>Default 1,1,1,1,30
-ptx_opcode_latency_dp         8,19,8,8,330 # Opcode latencies for double precision floating points <ADD,MAX,MUL,MAD,DIV>Default 8,8,8,8,335
-ptx_opcode_initiation_int            1,2,2,1,8 # Opcode initiation intervals for integers <ADD,MAX,MUL,MAD,DIV>Default 1,1,4,4,32
-ptx_opcode_initiation_fp            1,2,1,1,4 # Opcode initiation intervals for single precision floating points <ADD,MAX,MUL,MAD,DIV>Default 1,1,1,1,5
-ptx_opcode_initiation_dp         8,16,8,8,130 # Opcode initiation intervals for double precision floating points <ADD,MAX,MUL,MAD,DIV>Default 8,8,8,8,130
DRAM Timing Options:
nbk                                    16 # number of banks
CCD                                     2 # column to column delay
RRD                                     6 # minimal delay between activation of rows in different banks
RCD                                    12 # row to column delay
RAS                                    28 # time needed to activate row
RP                                     12 # time needed to precharge (deactivate) row
RC                                     40 # row cycle time
CDLR                                    5 # switching from write to read (changes tWTR)
WR                                     12 # last data-in to row precharge
CL                                     12 # CAS latency
WL                                      4 # Write latency
nbkgrp                                  4 # number of bank groups
CCDL                                    3 # column to column delay between accesses to different bank groups
RTPL                                    2 # read to precharge delay between accesses to different bank groups
Total number of memory sub partition = 12
addr_dec_mask[CHIP]  = 0000000000000000 	high:64 low:0
addr_dec_mask[BK]    = 000000000000e100 	high:16 low:8
addr_dec_mask[ROW]   = 000000000fff0000 	high:28 low:16
addr_dec_mask[COL]   = 0000000000001eff 	high:13 low:0
addr_dec_mask[BURST] = 000000000000003f 	high:6 low:0
sub_partition_id_mask = 0000000000000100
GPGPU-Sim uArch: clock freqs: 575000000.000000:575000000.000000:575000000.000000:750000000.000000
GPGPU-Sim uArch: clock periods: 0.00000000173913043478:0.00000000173913043478:0.00000000173913043478:0.00000000133333333333
*** Initializing Memory Statistics ***
GPGPU-Sim uArch: interconnect node map (shaderID+MemID to icntID)
GPGPU-Sim uArch: Memory nodes ID start from index: 14
GPGPU-Sim uArch:    0   1   2   3   4
GPGPU-Sim uArch:    5   6   7   8   9
GPGPU-Sim uArch:   10  11  12  13  14
GPGPU-Sim uArch:   15  16  17  18  19
GPGPU-Sim uArch:   20  21  22  23  24
GPGPU-Sim uArch:   25
GPGPU-Sim uArch: interconnect node reverse map (icntID to shaderID+MemID)
GPGPU-Sim uArch: Memory nodes start from ID: 14
GPGPU-Sim uArch:    0   1   2   3   4
GPGPU-Sim uArch:    5   6   7   8   9
GPGPU-Sim uArch:   10  11  12  13  14
GPGPU-Sim uArch:   15  16  17  18  19
GPGPU-Sim uArch:   20  21  22  23  24
GPGPU-Sim uArch:   25
51f820026c669010e95bae24c0fbee1c  /home/vishwesh/Desktop/Register_Sharing_Pbm/ispass2009-benchmarks/bin/release/BFS
GPGPU-Sim uArch: performance model initialization complete.
GPGPU-Sim PTX: __cudaRegisterFatBinary, fat_cubin_handle = 1, filename=bfs.cu
self exe links to: /home/vishwesh/Desktop/Register_Sharing_Pbm/ispass2009-benchmarks/bin/release/BFS
Running md5sum using "md5sum /home/vishwesh/Desktop/Register_Sharing_Pbm/ispass2009-benchmarks/bin/release/BFS "
Running cuobjdump using "$CUDA_INSTALL_PATH/bin/cuobjdump -ptx -elf -sass /home/vishwesh/Desktop/Register_Sharing_Pbm/ispass2009-benchmarks/bin/release/BFS > _cuobjdump_complete_output_f5TbdR"
Parsing file _cuobjdump_complete_output_f5TbdR
######### cuobjdump parser ########
## Adding new section PTX
Adding ptx filename: _cuobjdump_1.ptx
Adding arch: sm_10
Adding identifier: bfs.cu
## Adding new section ELF
Adding arch: sm_10
Adding identifier: bfs.cu
## Adding new section ELF
Adding arch: sm_20
Adding identifier: bfs.cu
## Adding new section PTX
Adding ptx filename: _cuobjdump_2.ptx
Adding arch: sm_20
Adding identifier: bfs.cu
Done parsing!!!
GPGPU-Sim: WARNING: Capability >= 20 are not supported in PTXPlus
	Setting forced_max_capability to 19
GPGPU-Sim PTX: __cudaRegisterFunction _Z6KernelP4NodePiPbS2_S1_S2_i : hostFun 0x0x403820, fat_cubin_handle = 1
GPGPU-Sim PTX: converting EMBEDDED .ptx file to ptxplus 
GPGPU-Sim PTX: DONE converting EMBEDDED .ptx file to ptxplus 
GPGPU-Sim PTX: allocating constant region for "constant1_Z6KernelP4NodePiPbS2_S1_S2_i" from 0x100 to 0x104 (global memory space) 1
GPGPU-Sim PTX: PTX uses two scalar type intruction with literal operand.
GPGPU-Sim PTX: instruction assembly for function '_Z6KernelP4NodePiPbS2_S1_S2_i'...   done.
GPGPU-Sim PTX: finding reconvergence points for '_Z6KernelP4NodePiPbS2_S1_S2_i'...
GPGPU-Sim PTX: Warning detected predicated return/exit.
GPGPU-Sim PTX: Warning detected predicated return/exit.
GPGPU-Sim PTX: Warning detected predicated return/exit.
GPGPU-Sim PTX: Finding dominators for '_Z6KernelP4NodePiPbS2_S1_S2_i'...
GPGPU-Sim PTX: Finding immediate dominators for '_Z6KernelP4NodePiPbS2_S1_S2_i'...
GPGPU-Sim PTX: Finding postdominators for '_Z6KernelP4NodePiPbS2_S1_S2_i'...
GPGPU-Sim PTX: Finding immediate postdominators for '_Z6KernelP4NodePiPbS2_S1_S2_i'...
GPGPU-Sim PTX: pre-decoding instructions for '_Z6KernelP4NodePiPbS2_S1_S2_i'...
GPGPU-Sim PTX: reconvergence points for _Z6KernelP4NodePiPbS2_S1_S2_i...
GPGPU-Sim PTX:  1 (potential) branch divergence @  PC=0x0e0 (_1.ptx:70) @$p0.ne bra l0x00000168;
GPGPU-Sim PTX:    immediate post dominator      @  PC=0x168 (_1.ptx:87) l0x00000168: nop;
GPGPU-Sim PTX:  2 (potential) branch divergence @  PC=0x188 (_1.ptx:91) @$p0.ne bra l0x000000b8;
GPGPU-Sim PTX:    immediate post dominator      @  PC=0x190 (_1.ptx:92) nop;
GPGPU-Sim PTX: ... end of reconvergence points for _Z6KernelP4NodePiPbS2_S1_S2_i
GPGPU-Sim PTX: ... done pre-decoding instructions for '_Z6KernelP4NodePiPbS2_S1_S2_i'.
GPGPU-Sim PTX: finished parsing EMBEDDED .ptx file _1.ptx
Adding _cuobjdump_1.ptx with cubin handle 1
GPGPU-Sim PTX: extracting embedded .ptx to temporary file "_ptx_968lgO"
Running: cat _ptx_968lgO | sed 's/.version 1.5/.version 1.4/' | sed 's/, texmode_independent//' | sed 's/\(\.extern \.const\[1\] .b8 \w\+\)\[\]/\1\[1\]/' | sed 's/const\[.\]/const\[0\]/g' > _ptx2_F5lxjL
GPGPU-Sim PTX: generating ptxinfo using "$CUDA_INSTALL_PATH/bin/ptxas --gpu-name=sm_20 -v _ptx2_F5lxjL --output-file  /dev/null 2> _ptx_968lgOinfo"
GPGPU-Sim PTX: Kernel '_Z6KernelP4NodePiPbS2_S1_S2_i' : regs=18, lmem=0, smem=0, cmem=84
GPGPU-Sim PTX: removing ptxinfo using "rm -f _ptx_968lgO _ptx2_F5lxjL _ptx_968lgOinfo"
GPGPU-Sim PTX: loading globals with explicit initializers... 
GPGPU-Sim PTX: finished loading globals (0 bytes total).
GPGPU-Sim PTX: loading constants with explicit initializers...  done.
Reading File
Input file: ./data/graph65536.txt
Read File
Copied Everything to GPU memory

GPGPU-Sim PTX: cudaLaunch for 0x0x403820 (mode=performance simulation) on stream 0
GPGPU-Sim PTX: pushing kernel '_Z6KernelP4NodePiPbS2_S1_S2_i' to stream 0, gridDim= (256,1,1) blockDim = (256,1,1) 
kernel '_Z6KernelP4NodePiPbS2_S1_S2_i' transfer to GPU hardware scheduler
GPGPU-Sim uArch: Shader 1 bind to kernel 1 '_Z6KernelP4NodePiPbS2_S1_S2_i'
GPGPU-Sim uArch: CTA/core = 10, limited by: regs
Shared mode is : 1
GPGPU-Sim uArch: core:  1, cta: 0 initialized @(1,0)
GPGPU-Sim uArch: Shader 2 bind to kernel 1 '_Z6KernelP4NodePiPbS2_S1_S2_i'
Shared mode is : 1
GPGPU-Sim uArch: core:  2, cta: 0 initialized @(1,0)
GPGPU-Sim uArch: Shader 3 bind to kernel 1 '_Z6KernelP4NodePiPbS2_S1_S2_i'
Shared mode is : 1
GPGPU-Sim uArch: core:  3, cta: 0 initialized @(1,0)
GPGPU-Sim uArch: Shader 4 bind to kernel 1 '_Z6KernelP4NodePiPbS2_S1_S2_i'
Shared mode is : 1
GPGPU-Sim uArch: core:  4, cta: 0 initialized @(1,0)
GPGPU-Sim uArch: Shader 5 bind to kernel 1 '_Z6KernelP4NodePiPbS2_S1_S2_i'
Shared mode is : 1
GPGPU-Sim uArch: core:  5, cta: 0 initialized @(1,0)
GPGPU-Sim uArch: Shader 6 bind to kernel 1 '_Z6KernelP4NodePiPbS2_S1_S2_i'
Shared mode is : 1
GPGPU-Sim uArch: core:  6, cta: 0 initialized @(1,0)
GPGPU-Sim uArch: Shader 7 bind to kernel 1 '_Z6KernelP4NodePiPbS2_S1_S2_i'
Shared mode is : 1
GPGPU-Sim uArch: core:  7, cta: 0 initialized @(1,0)
GPGPU-Sim uArch: Shader 8 bind to kernel 1 '_Z6KernelP4NodePiPbS2_S1_S2_i'
Shared mode is : 1
GPGPU-Sim uArch: core:  8, cta: 0 initialized @(1,0)
GPGPU-Sim uArch: Shader 9 bind to kernel 1 '_Z6KernelP4NodePiPbS2_S1_S2_i'
Shared mode is : 1
GPGPU-Sim uArch: core:  9, cta: 0 initialized @(1,0)
GPGPU-Sim uArch: Shader 10 bind to kernel 1 '_Z6KernelP4NodePiPbS2_S1_S2_i'
Shared mode is : 1
GPGPU-Sim uArch: core: 10, cta: 0 initialized @(1,0)
GPGPU-Sim uArch: Shader 11 bind to kernel 1 '_Z6KernelP4NodePiPbS2_S1_S2_i'
Shared mode is : 1
GPGPU-Sim uArch: core: 11, cta: 0 initialized @(1,0)
GPGPU-Sim uArch: Shader 12 bind to kernel 1 '_Z6KernelP4NodePiPbS2_S1_S2_i'
Shared mode is : 1
GPGPU-Sim uArch: core: 12, cta: 0 initialized @(1,0)
GPGPU-Sim uArch: Shader 13 bind to kernel 1 '_Z6KernelP4NodePiPbS2_S1_S2_i'
Shared mode is : 1
GPGPU-Sim uArch: core: 13, cta: 0 initialized @(1,0)
GPGPU-Sim uArch: Shader 0 bind to kernel 1 '_Z6KernelP4NodePiPbS2_S1_S2_i'
Shared mode is : 1
GPGPU-Sim uArch: core:  0, cta: 0 initialized @(1,0)
Shared mode is : 1
GPGPU-Sim uArch: core:  1, cta: 1 initialized @(2,0)
Shared mode is : 1
GPGPU-Sim uArch: core:  2, cta: 1 initialized @(2,0)
Shared mode is : 1
GPGPU-Sim uArch: core:  3, cta: 1 initialized @(2,0)
Shared mode is : 1
GPGPU-Sim uArch: core:  4, cta: 1 initialized @(2,0)
Shared mode is : 1
GPGPU-Sim uArch: core:  5, cta: 1 initialized @(2,0)
Shared mode is : 1
GPGPU-Sim uArch: core:  6, cta: 1 initialized @(2,0)
Shared mode is : 1
GPGPU-Sim uArch: core:  7, cta: 1 initialized @(2,0)
Shared mode is : 1
GPGPU-Sim uArch: core:  8, cta: 1 initialized @(2,0)
Shared mode is : 1
GPGPU-Sim uArch: core:  9, cta: 1 initialized @(2,0)
Shared mode is : 1
GPGPU-Sim uArch: core: 10, cta: 1 initialized @(2,0)
Shared mode is : 1
GPGPU-Sim uArch: core: 11, cta: 1 initialized @(2,0)
Shared mode is : 1
GPGPU-Sim uArch: core: 12, cta: 1 initialized @(2,0)
Shared mode is : 1
GPGPU-Sim uArch: core: 13, cta: 1 initialized @(2,0)
Shared mode is : 1
GPGPU-Sim uArch: core:  0, cta: 1 initialized @(2,0)
Shared mode is : 1
GPGPU-Sim uArch: core:  1, cta: 2 initialized @(3,0)
Shared mode is : 1
GPGPU-Sim uArch: core:  2, cta: 2 initialized @(3,0)
Shared mode is : 1
GPGPU-Sim uArch: core:  3, cta: 2 initialized @(3,0)
Shared mode is : 1
GPGPU-Sim uArch: core:  4, cta: 2 initialized @(3,0)
Shared mode is : 1
GPGPU-Sim uArch: core:  5, cta: 2 initialized @(3,0)
Shared mode is : 1
GPGPU-Sim uArch: core:  6, cta: 2 initialized @(3,0)
Shared mode is : 1
GPGPU-Sim uArch: core:  7, cta: 2 initialized @(3,0)
Shared mode is : 1
GPGPU-Sim uArch: core:  8, cta: 2 initialized @(3,0)
Shared mode is : 1
GPGPU-Sim uArch: core:  9, cta: 2 initialized @(3,0)
Shared mode is : 1
GPGPU-Sim uArch: core: 10, cta: 2 initialized @(3,0)
Shared mode is : 1
GPGPU-Sim uArch: core: 11, cta: 2 initialized @(3,0)
Shared mode is : 1
GPGPU-Sim uArch: core: 12, cta: 2 initialized @(3,0)
Shared mode is : 1
GPGPU-Sim uArch: core: 13, cta: 2 initialized @(3,0)
Shared mode is : 1
GPGPU-Sim uArch: core:  0, cta: 2 initialized @(3,0)
Shared mode is : 1
GPGPU-Sim uArch: core:  1, cta: 3 initialized @(4,0)
Shared mode is : 1
GPGPU-Sim uArch: core:  2, cta: 3 initialized @(4,0)
Shared mode is : 1
GPGPU-Sim uArch: core:  3, cta: 3 initialized @(4,0)
Shared mode is : 1
GPGPU-Sim uArch: core:  4, cta: 3 initialized @(4,0)
Shared mode is : 1
GPGPU-Sim uArch: core:  5, cta: 3 initialized @(4,0)
Shared mode is : 1
GPGPU-Sim uArch: core:  6, cta: 3 initialized @(4,0)
Shared mode is : 1
GPGPU-Sim uArch: core:  7, cta: 3 initialized @(4,0)
Shared mode is : 1
GPGPU-Sim uArch: core:  8, cta: 3 initialized @(4,0)
Shared mode is : 1
GPGPU-Sim uArch: core:  9, cta: 3 initialized @(4,0)
Shared mode is : 1
GPGPU-Sim uArch: core: 10, cta: 3 initialized @(4,0)
Shared mode is : 1
GPGPU-Sim uArch: core: 11, cta: 3 initialized @(4,0)
Shared mode is : 1
GPGPU-Sim uArch: core: 12, cta: 3 initialized @(4,0)
Shared mode is : 1
GPGPU-Sim uArch: core: 13, cta: 3 initialized @(4,0)
Shared mode is : 1
GPGPU-Sim uArch: core:  0, cta: 3 initialized @(4,0)
Shared mode is : 1
GPGPU-Sim uArch: core:  1, cta: 4 initialized @(5,0)
Shared mode is : 1
GPGPU-Sim uArch: core:  2, cta: 4 initialized @(5,0)
Shared mode is : 1
GPGPU-Sim uArch: core:  3, cta: 4 initialized @(5,0)
Shared mode is : 1
GPGPU-Sim uArch: core:  4, cta: 4 initialized @(5,0)
Shared mode is : 1
GPGPU-Sim uArch: core:  5, cta: 4 initialized @(5,0)
Shared mode is : 1
GPGPU-Sim uArch: core:  6, cta: 4 initialized @(5,0)
Shared mode is : 1
GPGPU-Sim uArch: core:  7, cta: 4 initialized @(5,0)
Shared mode is : 1
GPGPU-Sim uArch: core:  8, cta: 4 initialized @(5,0)
Shared mode is : 1
GPGPU-Sim uArch: core:  9, cta: 4 initialized @(5,0)
Shared mode is : 1
GPGPU-Sim uArch: core: 10, cta: 4 initialized @(5,0)
Shared mode is : 1
GPGPU-Sim uArch: core: 11, cta: 4 initialized @(5,0)
Shared mode is : 1
GPGPU-Sim uArch: core: 12, cta: 4 initialized @(5,0)
Shared mode is : 1
GPGPU-Sim uArch: core: 13, cta: 4 initialized @(5,0)
Shared mode is : 1
GPGPU-Sim uArch: core:  0, cta: 4 initialized @(5,0)
Shared mode is : 1
GPGPU-Sim uArch: core:  1, cta: 5 initialized @(6,0)
Shared mode is : 1
GPGPU-Sim uArch: core:  2, cta: 5 initialized @(6,0)
Shared mode is : 1
GPGPU-Sim uArch: core:  3, cta: 5 initialized @(6,0)
Shared mode is : 1
GPGPU-Sim uArch: core:  4, cta: 5 initialized @(6,0)
Shared mode is : 1
GPGPU-Sim uArch: core:  5, cta: 5 initialized @(6,0)
Shared mode is : 1
GPGPU-Sim uArch: core:  6, cta: 5 initialized @(6,0)
Shared mode is : 1
GPGPU-Sim uArch: core:  7, cta: 5 initialized @(6,0)
Shared mode is : 1
GPGPU-Sim uArch: core:  8, cta: 5 initialized @(6,0)
Shared mode is : 1
GPGPU-Sim uArch: core:  9, cta: 5 initialized @(6,0)
Shared mode is : 1
GPGPU-Sim uArch: core: 10, cta: 5 initialized @(6,0)
Shared mode is : 1
GPGPU-Sim uArch: core: 11, cta: 5 initialized @(6,0)
Shared mode is : 1
GPGPU-Sim uArch: core: 12, cta: 5 initialized @(6,0)
Shared mode is : 1
GPGPU-Sim uArch: core: 13, cta: 5 initialized @(6,0)
Shared mode is : 1
GPGPU-Sim uArch: core:  0, cta: 5 initialized @(6,0)
Shared mode is : 1
GPGPU-Sim uArch: core:  1, cta: 6 initialized @(7,0)
Shared mode is : 1
GPGPU-Sim uArch: core:  2, cta: 6 initialized @(7,0)
Shared mode is : 1
GPGPU-Sim uArch: core:  3, cta: 6 initialized @(7,0)
Shared mode is : 1
GPGPU-Sim uArch: core:  4, cta: 6 initialized @(7,0)
Shared mode is : 1
GPGPU-Sim uArch: core:  5, cta: 6 initialized @(7,0)
Shared mode is : 1
GPGPU-Sim uArch: core:  6, cta: 6 initialized @(7,0)
Shared mode is : 1
GPGPU-Sim uArch: core:  7, cta: 6 initialized @(7,0)
Shared mode is : 1
GPGPU-Sim uArch: core:  8, cta: 6 initialized @(7,0)
Shared mode is : 1
GPGPU-Sim uArch: core:  9, cta: 6 initialized @(7,0)
Shared mode is : 1
GPGPU-Sim uArch: core: 10, cta: 6 initialized @(7,0)
Shared mode is : 1
GPGPU-Sim uArch: core: 11, cta: 6 initialized @(7,0)
Shared mode is : 1
GPGPU-Sim uArch: core: 12, cta: 6 initialized @(7,0)
Shared mode is : 1
GPGPU-Sim uArch: core: 13, cta: 6 initialized @(7,0)
Shared mode is : 1
GPGPU-Sim uArch: core:  0, cta: 6 initialized @(7,0)
Shared mode is : 1
GPGPU-Sim uArch: core:  1, cta: 7 initialized @(8,0)
Shared mode is : 1
GPGPU-Sim uArch: core:  2, cta: 7 initialized @(8,0)
Shared mode is : 1
GPGPU-Sim uArch: core:  3, cta: 7 initialized @(8,0)
Shared mode is : 1
GPGPU-Sim uArch: core:  4, cta: 7 initialized @(8,0)
Shared mode is : 1
GPGPU-Sim uArch: core:  5, cta: 7 initialized @(8,0)
Shared mode is : 1
GPGPU-Sim uArch: core:  6, cta: 7 initialized @(8,0)
Shared mode is : 1
GPGPU-Sim uArch: core:  7, cta: 7 initialized @(8,0)
Shared mode is : 1
GPGPU-Sim uArch: core:  8, cta: 7 initialized @(8,0)
Shared mode is : 1
GPGPU-Sim uArch: core:  9, cta: 7 initialized @(8,0)
Shared mode is : 1
GPGPU-Sim uArch: core: 10, cta: 7 initialized @(8,0)
Shared mode is : 1
GPGPU-Sim uArch: core: 11, cta: 7 initialized @(8,0)
Shared mode is : 1
GPGPU-Sim uArch: core: 12, cta: 7 initialized @(8,0)
Shared mode is : 1
GPGPU-Sim uArch: core: 13, cta: 7 initialized @(8,0)
Shared mode is : 1
GPGPU-Sim uArch: core:  0, cta: 7 initialized @(8,0)
Shared mode is : 1
GPGPU-Sim uArch: core:  1, cta: 8 initialized @(9,0)
Shared mode is : 1
GPGPU-Sim uArch: core:  2, cta: 8 initialized @(9,0)
Shared mode is : 1
GPGPU-Sim uArch: core:  3, cta: 8 initialized @(9,0)
Shared mode is : 1
GPGPU-Sim uArch: core:  4, cta: 8 initialized @(9,0)
Shared mode is : 1
GPGPU-Sim uArch: core:  5, cta: 8 initialized @(9,0)
Shared mode is : 1
GPGPU-Sim uArch: core:  6, cta: 8 initialized @(9,0)
Shared mode is : 1
GPGPU-Sim uArch: core:  7, cta: 8 initialized @(9,0)
Shared mode is : 1
GPGPU-Sim uArch: core:  8, cta: 8 initialized @(9,0)
Shared mode is : 1
GPGPU-Sim uArch: core:  9, cta: 8 initialized @(9,0)
Shared mode is : 1
GPGPU-Sim uArch: core: 10, cta: 8 initialized @(9,0)
Shared mode is : 1
GPGPU-Sim uArch: core: 11, cta: 8 initialized @(9,0)
Shared mode is : 1
GPGPU-Sim uArch: core: 12, cta: 8 initialized @(9,0)
Shared mode is : 1
GPGPU-Sim uArch: core: 13, cta: 8 initialized @(9,0)
Shared mode is : 1
GPGPU-Sim uArch: core:  0, cta: 8 initialized @(9,0)
Shared mode is : 1
GPGPU-Sim uArch: core:  1, cta: 9 initialized @(10,0)
Shared mode is : 1
GPGPU-Sim uArch: core:  2, cta: 9 initialized @(10,0)
Shared mode is : 1
GPGPU-Sim uArch: core:  3, cta: 9 initialized @(10,0)
Shared mode is : 1
GPGPU-Sim uArch: core:  4, cta: 9 initialized @(10,0)
Shared mode is : 1
GPGPU-Sim uArch: core:  5, cta: 9 initialized @(10,0)
Shared mode is : 1
GPGPU-Sim uArch: core:  6, cta: 9 initialized @(10,0)
Shared mode is : 1
GPGPU-Sim uArch: core:  7, cta: 9 initialized @(10,0)
Shared mode is : 1
GPGPU-Sim uArch: core:  8, cta: 9 initialized @(10,0)
Shared mode is : 1
GPGPU-Sim uArch: core:  9, cta: 9 initialized @(10,0)
Shared mode is : 1
GPGPU-Sim uArch: core: 10, cta: 9 initialized @(10,0)
Shared mode is : 1
GPGPU-Sim uArch: core: 11, cta: 9 initialized @(10,0)
Shared mode is : 1
GPGPU-Sim uArch: core: 12, cta: 9 initialized @(10,0)
Shared mode is : 1
GPGPU-Sim uArch: core: 13, cta: 9 initialized @(10,0)
Shared mode is : 1
GPGPU-Sim uArch: core:  0, cta: 9 initialized @(10,0)
GPGPU-Sim uArch: Shader 4 finished CTA #9 (737,0), 9 CTAs running
Shared mode is : 1
GPGPU-Sim uArch: core:  4, cta: 9 initialized @(738,0)
GPGPU-Sim uArch: Shader 0 finished CTA #4 (759,0), 9 CTAs running
Shared mode is : 1
GPGPU-Sim uArch: core:  0, cta: 4 initialized @(760,0)
GPGPU-Sim uArch: Shader 1 finished CTA #5 (762,0), 9 CTAs running
Shared mode is : 1
GPGPU-Sim uArch: core:  1, cta: 5 initialized @(763,0)
GPGPU-Sim uArch: Shader 5 finished CTA #8 (765,0), 9 CTAs running
Shared mode is : 1
GPGPU-Sim uArch: core:  5, cta: 8 initialized @(766,0)
GPGPU-Sim uArch: Shader 2 finished CTA #6 (768,0), 9 CTAs running
GPGPU-Sim uArch: Shader 3 finished CTA #6 (768,0), 9 CTAs running
Shared mode is : 1
GPGPU-Sim uArch: core:  2, cta: 6 initialized @(769,0)
Shared mode is : 1
GPGPU-Sim uArch: core:  3, cta: 6 initialized @(769,0)
GPGPU-Sim uArch: Shader 1 finished CTA #6 (771,0), 9 CTAs running
Shared mode is : 1
GPGPU-Sim uArch: core:  1, cta: 6 initialized @(772,0)
GPGPU-Sim uArch: Shader 0 finished CTA #5 (775,0), 9 CTAs running
Shared mode is : 1
GPGPU-Sim uArch: core:  0, cta: 5 initialized @(776,0)
GPGPU-Sim uArch: Shader 3 finished CTA #7 (777,0), 9 CTAs running
Shared mode is : 1
GPGPU-Sim uArch: core:  3, cta: 7 initialized @(778,0)
GPGPU-Sim uArch: Shader 5 finished CTA #7 (781,0), 9 CTAs running
Shared mode is : 1
GPGPU-Sim uArch: core:  5, cta: 7 initialized @(782,0)
GPGPU-Sim uArch: Shader 0 finished CTA #6 (784,0), 9 CTAs running
Shared mode is : 1
GPGPU-Sim uArch: core:  0, cta: 6 initialized @(785,0)
GPGPU-Sim uArch: Shader 1 finished CTA #4 (788,0), 9 CTAs running
Shared mode is : 1
GPGPU-Sim uArch: core:  1, cta: 4 initialized @(789,0)
GPGPU-Sim uArch: Shader 4 finished CTA #3 (789,0), 9 CTAs running
Shared mode is : 1
GPGPU-Sim uArch: core:  4, cta: 3 initialized @(790,0)
GPGPU-Sim uArch: Shader 4 finished CTA #1 (790,0), 9 CTAs running
Shared mode is : 1
GPGPU-Sim uArch: core:  4, cta: 1 initialized @(791,0)
GPGPU-Sim uArch: Shader 4 finished CTA #0 (799,0), 9 CTAs running
Shared mode is : 1
GPGPU-Sim uArch: core:  4, cta: 0 initialized @(800,0)
GPGPU-Sim uArch: Shader 6 finished CTA #8 (801,0), 9 CTAs running
Shared mode is : 1
GPGPU-Sim uArch: core:  6, cta: 8 initialized @(802,0)
GPGPU-Sim uArch: Shader 5 finished CTA #0 (803,0), 9 CTAs running
Shared mode is : 1
GPGPU-Sim uArch: core:  5, cta: 0 initialized @(804,0)
GPGPU-Sim uArch: Shader 2 finished CTA #8 (808,0), 9 CTAs running
GPGPU-Sim uArch: Shader 11 finished CTA #6 (808,0), 9 CTAs running
Shared mode is : 1
GPGPU-Sim uArch: core: 11, cta: 6 initialized @(809,0)
Shared mode is : 1
GPGPU-Sim uArch: core:  2, cta: 8 initialized @(809,0)
GPGPU-Sim uArch: Shader 4 finished CTA #4 (809,0), 9 CTAs running
Shared mode is : 1
GPGPU-Sim uArch: core:  4, cta: 4 initialized @(810,0)
GPGPU-Sim uArch: Shader 0 finished CTA #0 (811,0), 9 CTAs running
Shared mode is : 1
GPGPU-Sim uArch: core:  0, cta: 0 initialized @(812,0)
GPGPU-Sim uArch: Shader 7 finished CTA #0 (814,0), 9 CTAs running
Shared mode is : 1
GPGPU-Sim uArch: core:  7, cta: 0 initialized @(815,0)
GPGPU-Sim uArch: Shader 2 finished CTA #0 (817,0), 9 CTAs running
GPGPU-Sim uArch: Shader 8 finished CTA #1 (817,0), 9 CTAs running
Shared mode is : 1
GPGPU-Sim uArch: core:  8, cta: 1 initialized @(818,0)
Shared mode is : 1
GPGPU-Sim uArch: core:  2, cta: 0 initialized @(818,0)
GPGPU-Sim uArch: Shader 3 finished CTA #8 (819,0), 9 CTAs running
Shared mode is : 1
GPGPU-Sim uArch: core:  3, cta: 8 initialized @(820,0)
GPGPU-Sim uArch: Shader 2 finished CTA #5 (821,0), 9 CTAs running
Shared mode is : 1
GPGPU-Sim uArch: core:  2, cta: 5 initialized @(822,0)
GPGPU-Sim uArch: Shader 7 finished CTA #1 (823,0), 9 CTAs running
Shared mode is : 1
GPGPU-Sim uArch: core:  7, cta: 1 initialized @(824,0)
GPGPU-Sim uArch: Shader 12 finished CTA #7 (825,0), 9 CTAs running
Shared mode is : 1
GPGPU-Sim uArch: core: 12, cta: 7 initialized @(826,0)
GPGPU-Sim uArch: Shader 1 finished CTA #7 (826,0), 9 CTAs running
Shared mode is : 1
GPGPU-Sim uArch: core:  1, cta: 7 initialized @(827,0)
GPGPU-Sim uArch: Shader 4 finished CTA #2 (829,0), 9 CTAs running
Shared mode is : 1
GPGPU-Sim uArch: core:  4, cta: 2 initialized @(830,0)
GPGPU-Sim uArch: Shader 7 finished CTA #2 (832,0), 9 CTAs running
Shared mode is : 1
GPGPU-Sim uArch: core:  7, cta: 2 initialized @(833,0)
GPGPU-Sim uArch: Shader 8 finished CTA #3 (833,0), 9 CTAs running
Shared mode is : 1
GPGPU-Sim uArch: core:  8, cta: 3 initialized @(834,0)
GPGPU-Sim uArch: Shader 0 finished CTA #7 (836,0), 9 CTAs running
Shared mode is : 1
GPGPU-Sim uArch: core:  0, cta: 7 initialized @(837,0)
GPGPU-Sim uArch: Shader 9 finished CTA #4 (840,0), 9 CTAs running
GPGPU-Sim uArch: Shader 11 finished CTA #7 (840,0), 9 CTAs running
Shared mode is : 1
GPGPU-Sim uArch: core:  9, cta: 4 initialized @(841,0)
Shared mode is : 1
GPGPU-Sim uArch: core: 11, cta: 7 initialized @(841,0)
GPGPU-Sim uArch: Shader 6 finished CTA #2 (844,0), 9 CTAs running
Shared mode is : 1
GPGPU-Sim uArch: core:  6, cta: 2 initialized @(845,0)
GPGPU-Sim uArch: Shader 10 finished CTA #6 (846,0), 9 CTAs running
Shared mode is : 1
GPGPU-Sim uArch: core: 10, cta: 6 initialized @(847,0)
GPGPU-Sim uArch: Shader 1 finished CTA #1 (847,0), 9 CTAs running
Shared mode is : 1
GPGPU-Sim uArch: core:  1, cta: 1 initialized @(848,0)
GPGPU-Sim uArch: Shader 2 finished CTA #7 (848,0), 9 CTAs running
GPGPU-Sim uArch: Shader 8 finished CTA #2 (848,0), 9 CTAs running
Shared mode is : 1
GPGPU-Sim uArch: core:  2, cta: 7 initialized @(849,0)
Shared mode is : 1
GPGPU-Sim uArch: core:  8, cta: 2 initialized @(849,0)
GPGPU-Sim uArch: Shader 9 finished CTA #6 (849,0), 9 CTAs running
GPGPU-Sim uArch: Shader 12 finished CTA #6 (849,0), 9 CTAs running
Shared mode is : 1
GPGPU-Sim uArch: core:  9, cta: 6 initialized @(850,0)
Shared mode is : 1
GPGPU-Sim uArch: core: 12, cta: 6 initialized @(850,0)
GPGPU-Sim uArch: Shader 7 finished CTA #3 (850,0), 9 CTAs running
Shared mode is : 1
GPGPU-Sim uArch: core:  7, cta: 3 initialized @(851,0)
GPGPU-Sim uArch: Shader 5 finished CTA #2 (854,0), 9 CTAs running
GPGPU-Sim uArch: Shader 13 finished CTA #0 (854,0), 9 CTAs running
Shared mode is : 1
GPGPU-Sim uArch: core: 13, cta: 0 initialized @(855,0)
Shared mode is : 1
GPGPU-Sim uArch: core:  5, cta: 2 initialized @(855,0)
GPGPU-Sim uArch: Shader 8 finished CTA #0 (859,0), 9 CTAs running
Shared mode is : 1
GPGPU-Sim uArch: core:  8, cta: 0 initialized @(860,0)
GPGPU-Sim uArch: Shader 3 finished CTA #0 (862,0), 9 CTAs running
GPGPU-Sim uArch: Shader 7 finished CTA #8 (862,0), 9 CTAs running
Shared mode is : 1
GPGPU-Sim uArch: core:  3, cta: 0 initialized @(863,0)
Shared mode is : 1
GPGPU-Sim uArch: core:  7, cta: 8 initialized @(863,0)
GPGPU-Sim uArch: Shader 6 finished CTA #0 (863,0), 9 CTAs running
Shared mode is : 1
GPGPU-Sim uArch: core:  6, cta: 0 initialized @(864,0)
GPGPU-Sim uArch: Shader 12 finished CTA #1 (864,0), 9 CTAs running
Shared mode is : 1
GPGPU-Sim uArch: core: 12, cta: 1 initialized @(865,0)
GPGPU-Sim uArch: Shader 9 finished CTA #7 (865,0), 9 CTAs running
Shared mode is : 1
GPGPU-Sim uArch: core:  9, cta: 7 initialized @(866,0)
GPGPU-Sim uArch: Shader 2 finished CTA #1 (866,0), 9 CTAs running
Shared mode is : 1
GPGPU-Sim uArch: core:  2, cta: 1 initialized @(867,0)
GPGPU-Sim uArch: Shader 9 finished CTA #5 (867,0), 9 CTAs running
Shared mode is : 1
GPGPU-Sim uArch: core:  9, cta: 5 initialized @(868,0)
GPGPU-Sim uArch: Shader 11 finished CTA #1 (869,0), 9 CTAs running
Shared mode is : 1
GPGPU-Sim uArch: core: 11, cta: 1 initialized @(870,0)
GPGPU-Sim uArch: Shader 0 finished CTA #1 (870,0), 9 CTAs running
Shared mode is : 1
GPGPU-Sim uArch: core:  0, cta: 1 initialized @(871,0)
GPGPU-Sim uArch: Shader 3 finished CTA #1 (871,0), 9 CTAs running
Shared mode is : 1
GPGPU-Sim uArch: core:  3, cta: 1 initialized @(872,0)
GPGPU-Sim uArch: Shader 5 finished CTA #1 (873,0), 9 CTAs running
Shared mode is : 1
GPGPU-Sim uArch: core:  5, cta: 1 initialized @(874,0)
GPGPU-Sim uArch: Shader 9 finished CTA #0 (880,0), 9 CTAs running
Shared mode is : 1
GPGPU-Sim uArch: core:  9, cta: 0 initialized @(881,0)
GPGPU-Sim uArch: Shader 8 finished CTA #4 (881,0), 9 CTAs running
GPGPU-Sim uArch: Shader 8 finished CTA #9 (881,0), 8 CTAs running
Shared mode is : 1
GPGPU-Sim uArch: core:  8, cta: 4 initialized @(882,0)
Shared mode is : 1
GPGPU-Sim uArch: core:  8, cta: 9 initialized @(883,0)
GPGPU-Sim uArch: Shader 11 finished CTA #5 (884,0), 9 CTAs running
Shared mode is : 1
GPGPU-Sim uArch: core: 11, cta: 5 initialized @(885,0)
GPGPU-Sim uArch: Shader 13 finished CTA #7 (885,0), 9 CTAs running
Shared mode is : 1
GPGPU-Sim uArch: core: 13, cta: 7 initialized @(886,0)
GPGPU-Sim uArch: Shader 10 finished CTA #4 (887,0), 9 CTAs running
Shared mode is : 1
GPGPU-Sim uArch: core: 10, cta: 4 initialized @(888,0)
GPGPU-Sim uArch: Shader 10 finished CTA #7 (888,0), 9 CTAs running
Shared mode is : 1
GPGPU-Sim uArch: core: 10, cta: 7 initialized @(889,0)
GPGPU-Sim uArch: Shader 12 finished CTA #8 (890,0), 9 CTAs running
Shared mode is : 1
GPGPU-Sim uArch: core: 12, cta: 8 initialized @(891,0)
GPGPU-Sim uArch: Shader 13 finished CTA #8 (894,0), 9 CTAs running
Shared mode is : 1
GPGPU-Sim uArch: core: 13, cta: 8 initialized @(895,0)
GPGPU-Sim uArch: Shader 3 finished CTA #9 (895,0), 9 CTAs running
Shared mode is : 1
GPGPU-Sim uArch: core:  3, cta: 9 initialized @(896,0)
GPGPU-Sim uArch: Shader 6 finished CTA #1 (896,0), 9 CTAs running
GPGPU-Sim uArch: Shader 10 finished CTA #5 (896,0), 9 CTAs running
Shared mode is : 1
GPGPU-Sim uArch: core:  6, cta: 1 initialized @(897,0)
Shared mode is : 1
GPGPU-Sim uArch: core: 10, cta: 5 initialized @(897,0)
GPGPU-Sim uArch: Shader 7 finished CTA #9 (899,0), 9 CTAs running
Shared mode is : 1
GPGPU-Sim uArch: core:  7, cta: 9 initialized @(900,0)
GPGPU-Sim uArch: Shader 11 finished CTA #0 (905,0), 9 CTAs running
Shared mode is : 1
GPGPU-Sim uArch: core: 11, cta: 0 initialized @(906,0)
GPGPU-Sim uArch: Shader 6 finished CTA #7 (906,0), 9 CTAs running
GPGPU-Sim uArch: Shader 10 finished CTA #0 (906,0), 9 CTAs running
Shared mode is : 1
GPGPU-Sim uArch: core:  6, cta: 7 initialized @(907,0)
Shared mode is : 1
GPGPU-Sim uArch: core: 10, cta: 0 initialized @(907,0)
GPGPU-Sim uArch: Shader 11 finished CTA #8 (908,0), 9 CTAs running
Shared mode is : 1
GPGPU-Sim uArch: core: 11, cta: 8 initialized @(909,0)
GPGPU-Sim uArch: Shader 12 finished CTA #9 (910,0), 9 CTAs running
Shared mode is : 1
GPGPU-Sim uArch: core: 12, cta: 9 initialized @(911,0)
GPGPU-Sim uArch: Shader 13 finished CTA #9 (911,0), 9 CTAs running
Shared mode is : 1
GPGPU-Sim uArch: core: 13, cta: 9 initialized @(912,0)
GPGPU-Sim uArch: Shader 5 finished CTA #9 (914,0), 9 CTAs running
Shared mode is : 1
GPGPU-Sim uArch: core:  5, cta: 9 initialized @(915,0)
GPGPU-Sim uArch: Shader 13 finished CTA #2 (924,0), 9 CTAs running
Shared mode is : 1
GPGPU-Sim uArch: core: 13, cta: 2 initialized @(925,0)
GPGPU-Sim uArch: Shader 9 finished CTA #1 (925,0), 9 CTAs running
Shared mode is : 1
GPGPU-Sim uArch: core:  9, cta: 1 initialized @(926,0)
GPGPU-Sim uArch: Shader 6 finished CTA #9 (939,0), 9 CTAs running
Shared mode is : 1
GPGPU-Sim uArch: core:  6, cta: 9 initialized @(940,0)
GPGPU-Sim uArch: Shader 10 finished CTA #1 (957,0), 9 CTAs running
GPGPU-Sim uArch: Shader 12 finished CTA #0 (957,0), 9 CTAs running
Shared mode is : 1
GPGPU-Sim uArch: core: 10, cta: 1 initialized @(958,0)
Shared mode is : 1
GPGPU-Sim uArch: core: 12, cta: 0 initialized @(958,0)
GPGPU-Sim uArch: Shader 13 finished CTA #1 (985,0), 9 CTAs running
Shared mode is : 1
GPGPU-Sim uArch: core: 13, cta: 1 initialized @(986,0)
GPGPU-Sim uArch: Shader 4 finished CTA #5 (1035,0), 9 CTAs running
Shared mode is : 1
GPGPU-Sim uArch: core:  4, cta: 5 initialized @(1036,0)
GPGPU-Sim uArch: Shader 2 finished CTA #2 (1063,0), 9 CTAs running
GPGPU-Sim uArch: Shader 5 finished CTA #4 (1063,0), 9 CTAs running
Shared mode is : 1
GPGPU-Sim uArch: core:  5, cta: 4 initialized @(1064,0)
Shared mode is : 1
GPGPU-Sim uArch: core:  2, cta: 2 initialized @(1064,0)
GPGPU-Sim uArch: Shader 3 finished CTA #2 (1076,0), 9 CTAs running
Shared mode is : 1
GPGPU-Sim uArch: core:  3, cta: 2 initialized @(1077,0)
GPGPU-Sim uArch: Shader 1 finished CTA #9 (1082,0), 9 CTAs running
Shared mode is : 1
GPGPU-Sim uArch: core:  1, cta: 9 initialized @(1083,0)
GPGPU-Sim uArch: Shader 6 finished CTA #4 (1097,0), 9 CTAs running
Shared mode is : 1
GPGPU-Sim uArch: core:  6, cta: 4 initialized @(1098,0)
GPGPU-Sim uArch: Shader 3 finished CTA #3 (1102,0), 9 CTAs running
GPGPU-Sim uArch: Shader 5 finished CTA #3 (1102,0), 9 CTAs running
Shared mode is : 1
GPGPU-Sim uArch: core:  3, cta: 3 initialized @(1103,0)
Shared mode is : 1
GPGPU-Sim uArch: core:  5, cta: 3 initialized @(1103,0)
GPGPU-Sim uArch: Shader 0 finished CTA #8 (1105,0), 9 CTAs running
Shared mode is : 1
GPGPU-Sim uArch: core:  0, cta: 8 initialized @(1106,0)
GPGPU-Sim uArch: Shader 11 finished CTA #2 (1109,0), 9 CTAs running
Shared mode is : 1
GPGPU-Sim uArch: core: 11, cta: 2 initialized @(1110,0)
GPGPU-Sim uArch: Shader 1 finished CTA #2 (1113,0), 9 CTAs running
Shared mode is : 1
GPGPU-Sim uArch: core:  1, cta: 2 initialized @(1114,0)
GPGPU-Sim uArch: Shader 4 finished CTA #7 (1118,0), 9 CTAs running
Shared mode is : 1
GPGPU-Sim uArch: core:  4, cta: 7 initialized @(1119,0)
GPGPU-Sim uArch: Shader 2 finished CTA #9 (1123,0), 9 CTAs running
Shared mode is : 1
GPGPU-Sim uArch: core:  2, cta: 9 initialized @(1124,0)
GPGPU-Sim uArch: Shader 0 finished CTA #2 (1133,0), 9 CTAs running
GPGPU-Sim uArch: Shader 3 finished CTA #4 (1133,0), 9 CTAs running
Shared mode is : 1
GPGPU-Sim uArch: core:  3, cta: 4 initialized @(1134,0)
Shared mode is : 1
GPGPU-Sim uArch: core:  0, cta: 2 initialized @(1134,0)
GPGPU-Sim uArch: Shader 1 finished CTA #8 (1135,0), 9 CTAs running
Shared mode is : 1
GPGPU-Sim uArch: core:  1, cta: 8 initialized @(1136,0)
GPGPU-Sim uArch: Shader 4 finished CTA #8 (1143,0), 9 CTAs running
Shared mode is : 1
GPGPU-Sim uArch: core:  4, cta: 8 initialized @(1144,0)
GPGPU-Sim uArch: Shader 12 finished CTA #3 (1145,0), 9 CTAs running
Shared mode is : 1
GPGPU-Sim uArch: core: 12, cta: 3 initialized @(1146,0)
GPGPU-Sim uArch: Shader 9 finished CTA #8 (1150,0), 9 CTAs running
Shared mode is : 1
GPGPU-Sim uArch: core:  9, cta: 8 initialized @(1151,0)
GPGPU-Sim uArch: Shader 11 finished CTA #3 (1151,0), 9 CTAs running
Shared mode is : 1
GPGPU-Sim uArch: core: 11, cta: 3 initialized @(1152,0)
GPGPU-Sim uArch: Shader 6 finished CTA #6 (1153,0), 9 CTAs running
GPGPU-Sim uArch: Shader 7 finished CTA #6 (1153,0), 9 CTAs running
Shared mode is : 1
GPGPU-Sim uArch: core:  6, cta: 6 initialized @(1154,0)
Shared mode is : 1
GPGPU-Sim uArch: core:  7, cta: 6 initialized @(1154,0)
GPGPU-Sim uArch: Shader 10 finished CTA #2 (1154,0), 9 CTAs running
Shared mode is : 1
GPGPU-Sim uArch: core: 10, cta: 2 initialized @(1155,0)
GPGPU-Sim uArch: Shader 0 finished CTA #9 (1157,0), 9 CTAs running
Shared mode is : 1
GPGPU-Sim uArch: core:  0, cta: 9 initialized @(1158,0)
GPGPU-Sim uArch: Shader 7 finished CTA #7 (1162,0), 9 CTAs running
Shared mode is : 1
GPGPU-Sim uArch: core:  7, cta: 7 initialized @(1163,0)
GPGPU-Sim uArch: Shader 5 finished CTA #0 (1163,0), 9 CTAs running
Shared mode is : 1
GPGPU-Sim uArch: core:  5, cta: 0 initialized @(1164,0)
GPGPU-Sim uArch: Shader 8 finished CTA #1 (1170,0), 9 CTAs running
Shared mode is : 1
GPGPU-Sim uArch: core:  8, cta: 1 initialized @(1171,0)
GPGPU-Sim uArch: Shader 4 finished CTA #1 (1175,0), 9 CTAs running
GPGPU-Sim uArch: Shader 12 finished CTA #2 (1175,0), 9 CTAs running
Shared mode is : 1
GPGPU-Sim uArch: core: 12, cta: 2 initialized @(1176,0)
Shared mode is : 1
GPGPU-Sim uArch: core:  4, cta: 1 initialized @(1176,0)
GPGPU-Sim uArch: Shader 5 finished CTA #6 (1181,0), 9 CTAs running
Shared mode is : 1
GPGPU-Sim uArch: core:  5, cta: 6 initialized @(1182,0)
GPGPU-Sim uArch: Shader 0 finished CTA #3 (1183,0), 9 CTAs running
Shared mode is : 1
GPGPU-Sim uArch: core:  0, cta: 3 initialized @(1184,0)
GPGPU-Sim uArch: Shader 1 finished CTA #3 (1184,0), 9 CTAs running
Shared mode is : 1
GPGPU-Sim uArch: core:  1, cta: 3 initialized @(1185,0)
GPGPU-Sim uArch: Shader 7 finished CTA #0 (1186,0), 9 CTAs running
Shared mode is : 1
GPGPU-Sim uArch: core:  7, cta: 0 initialized @(1187,0)
GPGPU-Sim uArch: Shader 2 finished CTA #0 (1187,0), 9 CTAs running
GPGPU-Sim uArch: Shader 4 finished CTA #6 (1188,0), 9 CTAs running
GPGPU-Sim uArch: Shader 2 finished CTA #3 (1202,0), 8 CTAs running
GPGPU-Sim uArch: Shader 0 finished CTA #0 (1204,0), 9 CTAs running
GPGPU-Sim uArch: Shader 3 finished CTA #0 (1204,0), 9 CTAs running
GPGPU-Sim uArch: Shader 4 finished CTA #0 (1205,0), 8 CTAs running
GPGPU-Sim uArch: Shader 5 finished CTA #5 (1211,0), 9 CTAs running
GPGPU-Sim uArch: Shader 2 finished CTA #4 (1213,0), 7 CTAs running
GPGPU-Sim uArch: Shader 11 finished CTA #1 (1216,0), 9 CTAs running
GPGPU-Sim uArch: Shader 13 finished CTA #3 (1216,0), 9 CTAs running
GPGPU-Sim uArch: Shader 3 finished CTA #5 (1217,0), 8 CTAs running
GPGPU-Sim uArch: Shader 9 finished CTA #9 (1220,0), 9 CTAs running
GPGPU-Sim uArch: Shader 1 finished CTA #1 (1221,0), 9 CTAs running
GPGPU-Sim uArch: Shader 6 finished CTA #0 (1221,0), 9 CTAs running
GPGPU-Sim uArch: Shader 7 finished CTA #1 (1222,0), 9 CTAs running
GPGPU-Sim uArch: Shader 5 finished CTA #1 (1225,0), 8 CTAs running
GPGPU-Sim uArch: Shader 6 finished CTA #3 (1228,0), 8 CTAs running
GPGPU-Sim uArch: Shader 9 finished CTA #2 (1228,0), 8 CTAs running
GPGPU-Sim uArch: Shader 10 finished CTA #8 (1233,0), 9 CTAs running
GPGPU-Sim uArch: Shader 11 finished CTA #9 (1235,0), 8 CTAs running
GPGPU-Sim uArch: Shader 12 finished CTA #4 (1235,0), 9 CTAs running
GPGPU-Sim uArch: Shader 13 finished CTA #4 (1242,0), 8 CTAs running
GPGPU-Sim uArch: Shader 12 finished CTA #1 (1244,0), 8 CTAs running
GPGPU-Sim uArch: Shader 7 finished CTA #4 (1245,0), 8 CTAs running
GPGPU-Sim uArch: Shader 9 finished CTA #3 (1247,0), 7 CTAs running
GPGPU-Sim uArch: Shader 12 finished CTA #5 (1248,0), 7 CTAs running
GPGPU-Sim uArch: Shader 13 finished CTA #0 (1252,0), 7 CTAs running
GPGPU-Sim uArch: Shader 8 finished CTA #6 (1254,0), 9 CTAs running
GPGPU-Sim uArch: Shader 0 finished CTA #1 (1258,0), 8 CTAs running
GPGPU-Sim uArch: Shader 13 finished CTA #5 (1259,0), 6 CTAs running
GPGPU-Sim uArch: Shader 2 finished CTA #1 (1260,0), 6 CTAs running
GPGPU-Sim uArch: Shader 8 finished CTA #5 (1262,0), 8 CTAs running
GPGPU-Sim uArch: Shader 10 finished CTA #3 (1263,0), 8 CTAs running
GPGPU-Sim uArch: Shader 3 finished CTA #1 (1268,0), 7 CTAs running
GPGPU-Sim uArch: Shader 7 finished CTA #5 (1271,0), 7 CTAs running
GPGPU-Sim uArch: Shader 8 finished CTA #7 (1274,0), 7 CTAs running
GPGPU-Sim uArch: Shader 11 finished CTA #0 (1274,0), 7 CTAs running
GPGPU-Sim uArch: Shader 13 finished CTA #6 (1282,0), 5 CTAs running
GPGPU-Sim uArch: Shader 11 finished CTA #4 (1286,0), 6 CTAs running
GPGPU-Sim uArch: Shader 10 finished CTA #9 (1288,0), 7 CTAs running
GPGPU-Sim uArch: Shader 8 finished CTA #8 (1293,0), 6 CTAs running
GPGPU-Sim uArch: Shader 9 finished CTA #0 (1295,0), 6 CTAs running
GPGPU-Sim uArch: Shader 6 finished CTA #5 (1296,0), 7 CTAs running
GPGPU-Sim uArch: Shader 8 finished CTA #0 (1297,0), 5 CTAs running
GPGPU-Sim uArch: Shader 6 finished CTA #1 (1299,0), 6 CTAs running
GPGPU-Sim uArch: Shader 12 finished CTA #0 (1306,0), 6 CTAs running
GPGPU-Sim uArch: Shader 10 finished CTA #0 (1313,0), 6 CTAs running
GPGPU-Sim uArch: Shader 9 finished CTA #1 (1314,0), 5 CTAs running
GPGPU-Sim uArch: Shader 4 finished CTA #9 (1328,0), 7 CTAs running
GPGPU-Sim uArch: Shader 10 finished CTA #1 (1333,0), 5 CTAs running
GPGPU-Sim uArch: Shader 13 finished CTA #1 (1349,0), 4 CTAs running
GPGPU-Sim uArch: Shader 5 finished CTA #8 (1369,0), 7 CTAs running
GPGPU-Sim uArch: Shader 2 finished CTA #6 (1370,0), 5 CTAs running
GPGPU-Sim uArch: Shader 3 finished CTA #6 (1383,0), 6 CTAs running
GPGPU-Sim uArch: Shader 6 finished CTA #8 (1387,0), 5 CTAs running
GPGPU-Sim uArch: Shader 1 finished CTA #5 (1401,0), 8 CTAs running
GPGPU-Sim uArch: Shader 5 finished CTA #7 (1401,0), 6 CTAs running
GPGPU-Sim uArch: Shader 11 finished CTA #6 (1402,0), 5 CTAs running
GPGPU-Sim uArch: Shader 3 finished CTA #7 (1403,0), 5 CTAs running
GPGPU-Sim uArch: Shader 4 finished CTA #3 (1410,0), 6 CTAs running
GPGPU-Sim uArch: Shader 0 finished CTA #4 (1414,0), 7 CTAs running
GPGPU-Sim uArch: Shader 2 finished CTA #5 (1424,0), 4 CTAs running
GPGPU-Sim uArch: Shader 1 finished CTA #6 (1428,0), 7 CTAs running
GPGPU-Sim uArch: Shader 3 finished CTA #8 (1433,0), 4 CTAs running
GPGPU-Sim uArch: Shader 1 finished CTA #4 (1436,0), 6 CTAs running
GPGPU-Sim uArch: Shader 12 finished CTA #7 (1436,0), 5 CTAs running
GPGPU-Sim uArch: Shader 11 finished CTA #7 (1442,0), 4 CTAs running
GPGPU-Sim uArch: Shader 9 finished CTA #4 (1443,0), 4 CTAs running
GPGPU-Sim uArch: Shader 6 finished CTA #2 (1446,0), 4 CTAs running
GPGPU-Sim uArch: Shader 0 finished CTA #6 (1451,0), 6 CTAs running
GPGPU-Sim uArch: Shader 10 finished CTA #6 (1453,0), 4 CTAs running
GPGPU-Sim uArch: Shader 4 finished CTA #4 (1454,0), 5 CTAs running
GPGPU-Sim uArch: Shader 7 finished CTA #2 (1460,0), 6 CTAs running
GPGPU-Sim uArch: Shader 0 finished CTA #5 (1462,0), 5 CTAs running
GPGPU-Sim uArch: Shader 12 finished CTA #6 (1468,0), 4 CTAs running
GPGPU-Sim uArch: Shader 1 finished CTA #7 (1481,0), 5 CTAs running
GPGPU-Sim uArch: Shader 5 finished CTA #2 (1482,0), 5 CTAs running
GPGPU-Sim uArch: Shader 7 finished CTA #3 (1488,0), 5 CTAs running
GPGPU-Sim uArch: Shader 4 finished CTA #2 (1491,0), 4 CTAs running
GPGPU-Sim uArch: Shader 0 finished CTA #7 (1493,0), 4 CTAs running
GPGPU-Sim uArch: Shader 8 finished CTA #1 (1497,0), 4 CTAs running
GPGPU-Sim uArch: Shader 2 finished CTA #7 (1499,0), 3 CTAs running
GPGPU-Sim uArch: Shader 5 finished CTA #0 (1510,0), 4 CTAs running
GPGPU-Sim uArch: Shader 13 finished CTA #7 (1512,0), 3 CTAs running
GPGPU-Sim uArch: Shader 4 finished CTA #1 (1513,0), 3 CTAs running
GPGPU-Sim uArch: Shader 2 finished CTA #8 (1516,0), 2 CTAs running
GPGPU-Sim uArch: Shader 9 finished CTA #5 (1519,0), 3 CTAs running
GPGPU-Sim uArch: Shader 6 finished CTA #7 (1522,0), 3 CTAs running
GPGPU-Sim uArch: Shader 3 finished CTA #9 (1523,0), 3 CTAs running
GPGPU-Sim uArch: Shader 10 finished CTA #4 (1524,0), 3 CTAs running
GPGPU-Sim uArch: Shader 9 finished CTA #6 (1529,0), 2 CTAs running
GPGPU-Sim uArch: Shader 11 finished CTA #5 (1529,0), 3 CTAs running
GPGPU-Sim uArch: Shader 7 finished CTA #0 (1541,0), 4 CTAs running
GPGPU-Sim uArch: Shader 5 finished CTA #9 (1543,0), 3 CTAs running
GPGPU-Sim uArch: Shader 12 finished CTA #8 (1547,0), 3 CTAs running
GPGPU-Sim uArch: Shader 7 finished CTA #8 (1548,0), 3 CTAs running
GPGPU-Sim uArch: Shader 12 finished CTA #9 (1554,0), 2 CTAs running
GPGPU-Sim uArch: Shader 13 finished CTA #8 (1556,0), 2 CTAs running
GPGPU-Sim uArch: Shader 8 finished CTA #2 (1557,0), 3 CTAs running
GPGPU-Sim uArch: Shader 9 finished CTA #7 (1559,0), 1 CTAs running
GPGPU-Sim uArch: Shader 10 finished CTA #7 (1563,0), 2 CTAs running
GPGPU-Sim uArch: Shader 7 finished CTA #9 (1576,0), 2 CTAs running
GPGPU-Sim uArch: Shader 13 finished CTA #9 (1576,0), 1 CTAs running
GPGPU-Sim uArch: Shader 8 finished CTA #9 (1577,0), 2 CTAs running
GPGPU-Sim uArch: Shader 11 finished CTA #8 (1577,0), 2 CTAs running
GPGPU-Sim uArch: Shader 10 finished CTA #5 (1585,0), 1 CTAs running
GPGPU-Sim uArch: Shader 8 finished CTA #3 (1588,0), 1 CTAs running
GPGPU-Sim uArch: Shader 13 finished CTA #2 (1589,0), 0 CTAs running
GPGPU-Sim uArch: Shader 13 empty (release kernel 1 '_Z6KernelP4NodePiPbS2_S1_S2_i').
GPGPU-Sim uArch: Shader 6 finished CTA #9 (1593,0), 2 CTAs running
GPGPU-Sim uArch: Shader 8 finished CTA #4 (1600,0), 0 CTAs running
GPGPU-Sim uArch: Shader 8 empty (release kernel 1 '_Z6KernelP4NodePiPbS2_S1_S2_i').
GPGPU-Sim uArch: Shader 4 finished CTA #5 (1622,0), 2 CTAs running
GPGPU-Sim uArch: Shader 2 finished CTA #2 (1661,0), 1 CTAs running
GPGPU-Sim uArch: Shader 5 finished CTA #4 (1661,0), 2 CTAs running
GPGPU-Sim uArch: Shader 3 finished CTA #2 (1679,0), 2 CTAs running
GPGPU-Sim uArch: Shader 6 finished CTA #4 (1683,0), 1 CTAs running
GPGPU-Sim uArch: Shader 5 finished CTA #3 (1695,0), 1 CTAs running
GPGPU-Sim uArch: Shader 11 finished CTA #2 (1699,0), 1 CTAs running
GPGPU-Sim uArch: Shader 3 finished CTA #3 (1700,0), 1 CTAs running
GPGPU-Sim uArch: Shader 1 finished CTA #9 (1701,0), 4 CTAs running
GPGPU-Sim uArch: Shader 4 finished CTA #7 (1707,0), 1 CTAs running
GPGPU-Sim uArch: Shader 0 finished CTA #8 (1715,0), 3 CTAs running
GPGPU-Sim uArch: Shader 2 finished CTA #9 (1715,0), 0 CTAs running
GPGPU-Sim uArch: Shader 2 empty (release kernel 1 '_Z6KernelP4NodePiPbS2_S1_S2_i').
GPGPU-Sim uArch: Shader 3 finished CTA #4 (1725,0), 0 CTAs running
GPGPU-Sim uArch: Shader 3 empty (release kernel 1 '_Z6KernelP4NodePiPbS2_S1_S2_i').
GPGPU-Sim uArch: Shader 1 finished CTA #8 (1733,0), 3 CTAs running
GPGPU-Sim uArch: Shader 12 finished CTA #3 (1737,0), 1 CTAs running
GPGPU-Sim uArch: Shader 9 finished CTA #8 (1738,0), 0 CTAs running
GPGPU-Sim uArch: Shader 9 empty (release kernel 1 '_Z6KernelP4NodePiPbS2_S1_S2_i').
GPGPU-Sim uArch: Shader 11 finished CTA #3 (1740,0), 0 CTAs running
GPGPU-Sim uArch: Shader 11 empty (release kernel 1 '_Z6KernelP4NodePiPbS2_S1_S2_i').
GPGPU-Sim uArch: Shader 0 finished CTA #2 (1742,0), 2 CTAs running
GPGPU-Sim uArch: Shader 4 finished CTA #8 (1747,0), 0 CTAs running
GPGPU-Sim uArch: Shader 4 empty (release kernel 1 '_Z6KernelP4NodePiPbS2_S1_S2_i').
GPGPU-Sim uArch: Shader 6 finished CTA #6 (1747,0), 0 CTAs running
GPGPU-Sim uArch: Shader 6 empty (release kernel 1 '_Z6KernelP4NodePiPbS2_S1_S2_i').
GPGPU-Sim uArch: Shader 1 finished CTA #2 (1752,0), 2 CTAs running
GPGPU-Sim uArch: Shader 7 finished CTA #6 (1757,0), 1 CTAs running
GPGPU-Sim uArch: Shader 10 finished CTA #2 (1758,0), 0 CTAs running
GPGPU-Sim uArch: Shader 10 empty (release kernel 1 '_Z6KernelP4NodePiPbS2_S1_S2_i').
GPGPU-Sim uArch: Shader 0 finished CTA #9 (1760,0), 1 CTAs running
GPGPU-Sim uArch: Shader 12 finished CTA #2 (1761,0), 0 CTAs running
GPGPU-Sim uArch: Shader 12 empty (release kernel 1 '_Z6KernelP4NodePiPbS2_S1_S2_i').
GPGPU-Sim uArch: Shader 5 finished CTA #6 (1775,0), 0 CTAs running
GPGPU-Sim uArch: Shader 5 empty (release kernel 1 '_Z6KernelP4NodePiPbS2_S1_S2_i').
GPGPU-Sim uArch: Shader 1 finished CTA #3 (1778,0), 1 CTAs running
GPGPU-Sim uArch: Shader 0 finished CTA #3 (1786,0), 0 CTAs running
GPGPU-Sim uArch: Shader 0 empty (release kernel 1 '_Z6KernelP4NodePiPbS2_S1_S2_i').
GPGPU-Sim uArch: Shader 7 finished CTA #7 (1788,0), 0 CTAs running
GPGPU-Sim uArch: Shader 7 empty (release kernel 1 '_Z6KernelP4NodePiPbS2_S1_S2_i').
GPGPU-Sim uArch: Shader 1 finished CTA #0 (5567,0), 0 CTAs running
GPGPU-Sim uArch: Shader 1 empty (release kernel 1 '_Z6KernelP4NodePiPbS2_S1_S2_i').
GPGPU-Sim uArch: GPU detected kernel '_Z6KernelP4NodePiPbS2_S1_S2_i' finished on shader 1.
kernel_name = _Z6KernelP4NodePiPbS2_S1_S2_i 
kernel_launch_uid = 1 
gpu_sim_cycle = 5568
gpu_sim_insn = 458974
gpu_ipc =      82.4307
gpu_tot_sim_cycle = 5568
gpu_tot_sim_insn = 458974
gpu_tot_ipc =      82.4307
gpu_tot_issued_cta = 0
gpu_stall_dramfull = 111
gpu_stall_icnt2sh    = 512
gpu_total_sim_rate=152991

========= Core cache stats =========
L1I_cache:
	L1I_total_cache_accesses = 8764
	L1I_total_cache_misses = 451
	L1I_total_cache_miss_rate = 0.0515
	L1I_total_cache_pending_hits = 0
	L1I_total_cache_reservation_fails = 3822
L1D_cache:
	L1D_cache_core[0]: Access = 160, Miss = 40, Miss_rate = 0.250, Pending_hits = 120, Reservation_fails = 0
	L1D_cache_core[1]: Access = 220, Miss = 74, Miss_rate = 0.336, Pending_hits = 115, Reservation_fails = 0
	L1D_cache_core[2]: Access = 144, Miss = 36, Miss_rate = 0.250, Pending_hits = 108, Reservation_fails = 0
	L1D_cache_core[3]: Access = 152, Miss = 38, Miss_rate = 0.250, Pending_hits = 114, Reservation_fails = 0
	L1D_cache_core[4]: Access = 160, Miss = 40, Miss_rate = 0.250, Pending_hits = 120, Reservation_fails = 0
	L1D_cache_core[5]: Access = 160, Miss = 40, Miss_rate = 0.250, Pending_hits = 120, Reservation_fails = 0
	L1D_cache_core[6]: Access = 144, Miss = 36, Miss_rate = 0.250, Pending_hits = 108, Reservation_fails = 0
	L1D_cache_core[7]: Access = 152, Miss = 38, Miss_rate = 0.250, Pending_hits = 114, Reservation_fails = 0
	L1D_cache_core[8]: Access = 136, Miss = 34, Miss_rate = 0.250, Pending_hits = 102, Reservation_fails = 0
	L1D_cache_core[9]: Access = 136, Miss = 34, Miss_rate = 0.250, Pending_hits = 102, Reservation_fails = 0
	L1D_cache_core[10]: Access = 136, Miss = 34, Miss_rate = 0.250, Pending_hits = 102, Reservation_fails = 0
	L1D_cache_core[11]: Access = 144, Miss = 36, Miss_rate = 0.250, Pending_hits = 108, Reservation_fails = 0
	L1D_cache_core[12]: Access = 144, Miss = 36, Miss_rate = 0.250, Pending_hits = 108, Reservation_fails = 0
	L1D_cache_core[13]: Access = 128, Miss = 32, Miss_rate = 0.250, Pending_hits = 96, Reservation_fails = 0
	L1D_total_cache_accesses = 2116
	L1D_total_cache_misses = 548
	L1D_total_cache_miss_rate = 0.2590
	L1D_total_cache_pending_hits = 1537
	L1D_total_cache_reservation_fails = 0
	L1D_cache_data_port_util = 0.001
	L1D_cache_fill_port_util = 0.019
L1C_cache:
	L1C_total_cache_accesses = 0
	L1C_total_cache_misses = 0
	L1C_total_cache_pending_hits = 0
	L1C_total_cache_reservation_fails = 0
L1T_cache:
	L1T_total_cache_accesses = 0
	L1T_total_cache_misses = 0
	L1T_total_cache_pending_hits = 0
	L1T_total_cache_reservation_fails = 0

Total_core_cache_stats:
	Total_core_cache_stats_breakdown[GLOBAL_ACC_R][HIT] = 30
	Total_core_cache_stats_breakdown[GLOBAL_ACC_R][HIT_RESERVED] = 1537
	Total_core_cache_stats_breakdown[GLOBAL_ACC_R][MISS] = 523
	Total_core_cache_stats_breakdown[GLOBAL_ACC_W][HIT] = 1
	Total_core_cache_stats_breakdown[GLOBAL_ACC_W][MISS] = 25
	Total_core_cache_stats_breakdown[INST_ACC_R][HIT] = 8313
	Total_core_cache_stats_breakdown[INST_ACC_R][MISS] = 451
	Total_core_cache_stats_breakdown[INST_ACC_R][RESERVATION_FAIL] = 3822
Shader 0 warp_id issue ditsribution:
warp_id:
0, 1, 2, 3, 4, 5, 6, 7, 8, 9, 10, 11, 12, 13, 14, 15, 16, 17, 18, 19, 20, 21, 22, 23, 24, 25, 26, 27, 28, 29, 30, 31, 32, 33, 34, 35, 36, 37, 38, 39, 40, 41, 42, 43, 44, 45, 46, 47, 48, 49, 50, 51, 52, 53, 54, 55, 56, 57, 58, 59, 60, 61, 62, 63, 64, 65, 66, 67, 68, 69, 70, 71, 72, 73, 74, 75, 76, 77, 78, 79, 
distro:
16, 16, 16, 16, 16, 16, 16, 16, 16, 16, 16, 16, 16, 16, 16, 16, 16, 16, 16, 16, 16, 16, 16, 16, 16, 16, 16, 16, 16, 16, 16, 16, 16, 16, 16, 16, 16, 16, 16, 16, 16, 16, 16, 16, 16, 16, 16, 16, 16, 16, 16, 16, 16, 16, 16, 16, 16, 16, 16, 16, 16, 16, 16, 16, 16, 16, 16, 16, 16, 16, 16, 16, 16, 16, 16, 16, 16, 16, 16, 16, 
gpgpu_n_tot_thrd_icount = 531744
gpgpu_n_tot_w_icount = 16617
gpgpu_n_stall_shd_mem = 0
gpgpu_n_mem_read_local = 0
gpgpu_n_mem_write_local = 0
gpgpu_n_mem_read_global = 523
gpgpu_n_mem_write_global = 26
gpgpu_n_mem_texture = 0
gpgpu_n_mem_const = 0
gpgpu_n_load_insn  = 65578
gpgpu_n_store_insn = 26
gpgpu_n_shmem_insn = 8
gpgpu_n_tex_insn = 0
gpgpu_n_const_mem_insn = 0
gpgpu_n_param_mem_insn = 0
gpgpu_n_shmem_bkconflict = 0
gpgpu_n_cache_bkconflict = 0
gpgpu_n_intrawarp_mshr_merge = 0
gpgpu_n_cmem_portconflict = 0
gpgpu_stall_shd_mem[c_mem][bk_conf] = 0
gpgpu_stall_shd_mem[c_mem][mshr_rc] = 0
gpgpu_stall_shd_mem[c_mem][icnt_rc] = 0
gpgpu_stall_shd_mem[c_mem][data_port_stall] = 0
gpgpu_stall_shd_mem[t_mem][mshr_rc] = 0
gpgpu_stall_shd_mem[t_mem][icnt_rc] = 0
gpgpu_stall_shd_mem[t_mem][data_port_stall] = 0
gpgpu_stall_shd_mem[s_mem][bk_conf] = 0
gpgpu_stall_shd_mem[gl_mem][bk_conf] = 0
gpgpu_stall_shd_mem[gl_mem][coal_stall] = 0
gpgpu_stall_shd_mem[gl_mem][data_port_stall] = 0
gpgpu_stall_shd_mem[g_mem_ld][mshr_rc] = 0
gpgpu_stall_shd_mem[g_mem_ld][icnt_rc] = 0
gpgpu_stall_shd_mem[g_mem_ld][wb_icnt_rc] = 0
gpgpu_stall_shd_mem[g_mem_ld][wb_rsrv_fail] = 0
gpgpu_stall_shd_mem[g_mem_st][mshr_rc] = 0
gpgpu_stall_shd_mem[g_mem_st][icnt_rc] = 0
gpgpu_stall_shd_mem[g_mem_st][wb_icnt_rc] = 0
gpgpu_stall_shd_mem[g_mem_st][wb_rsrv_fail] = 0
gpgpu_stall_shd_mem[l_mem_ld][mshr_rc] = 0
gpgpu_stall_shd_mem[l_mem_ld][icnt_rc] = 0
gpgpu_stall_shd_mem[l_mem_ld][wb_icnt_rc] = 0
gpgpu_stall_shd_mem[l_mem_ld][wb_rsrv_fail] = 0
gpgpu_stall_shd_mem[l_mem_st][mshr_rc] = 0
gpgpu_stall_shd_mem[l_mem_st][icnt_rc] = 0
gpgpu_stall_shd_mem[l_mem_ld][wb_icnt_rc] = 0
gpgpu_stall_shd_mem[l_mem_ld][wb_rsrv_fail] = 0
gpu_reg_bank_conflict_stalls = 0
Warp Occupancy Distribution:
Stall:267	W0_Idle:13446	W0_Scoreboard:25770	W1:233	W2:0	W3:0	W4:0	W5:0	W6:0	W7:0	W8:0	W9:0	W10:0	W11:0	W12:0	W13:0	W14:0	W15:0	W16:0	W17:0	W18:0	W19:0	W20:0	W21:0	W22:0	W23:0	W24:0	W25:0	W26:0	W27:0	W28:0	W29:0	W30:0	W31:0	W32:16384
traffic_breakdown_coretomem[GLOBAL_ACC_R] = 4184 {8:523,}
traffic_breakdown_coretomem[GLOBAL_ACC_W] = 1040 {40:26,}
traffic_breakdown_coretomem[INST_ACC_R] = 136 {8:17,}
traffic_breakdown_memtocore[GLOBAL_ACC_R] = 71128 {136:523,}
traffic_breakdown_memtocore[GLOBAL_ACC_W] = 208 {8:26,}
traffic_breakdown_memtocore[INST_ACC_R] = 2312 {136:17,}
Memory Partition 0: 
Cache L2_bank_000:
MSHR contents
MSHR: tag=0x80234400, atomic=0 1 entries : 0x7f767d9175d0 :  mf: uid= 14712, sid01:w00, part=0, addr=0x80234440, load , size=32, unknown  status = IN_PARTITION_DRAM (5565), 

Cache L2_bank_001:
MSHR contents

In Dram Latency Queue (total = 0): 
DRAM[0]: 16 bks, busW=4 BL=8 CL=12, tRRD=2 tCCD=6, tRCD=12 tRAS=28 tRP=12 tRC=40
n_cmd=7262 n_nop=7073 n_act=7 n_pre=1 n_req=91 n_rd=180 n_write=1 bw_util=0.04985
n_activity=851 dram_eff=0.4254
bk0: 6a 7213i bk1: 0a 7261i bk2: 2a 7240i bk3: 0a 7261i bk4: 0a 7263i bk5: 0a 7263i bk6: 0a 7263i bk7: 0a 7263i bk8: 0a 7263i bk9: 0a 7263i bk10: 40a 7140i bk11: 44a 7032i bk12: 44a 7008i bk13: 44a 7072i bk14: 0a 7259i bk15: 0a 7259i 
dram_util_bins: 0 0 0 0 0 0 0 0 0 0
dram_eff_bins: 0 0 0 0 0 0 0 0 0 0
mrqq: max=11 avg=0.145001
Memory Partition 1: 
Cache L2_bank_002:
MSHR contents

Cache L2_bank_003:
MSHR contents

In Dram Latency Queue (total = 0): 
DRAM[1]: 16 bks, busW=4 BL=8 CL=12, tRRD=2 tCCD=6, tRCD=12 tRAS=28 tRP=12 tRC=40
n_cmd=7262 n_nop=7070 n_act=6 n_pre=0 n_req=93 n_rd=186 n_write=0 bw_util=0.05123
n_activity=876 dram_eff=0.4247
bk0: 4a 7240i bk1: 0a 7260i bk2: 0a 7260i bk3: 0a 7260i bk4: 0a 7262i bk5: 0a 7262i bk6: 0a 7262i bk7: 0a 7262i bk8: 0a 7262i bk9: 0a 7264i bk10: 40a 7117i bk11: 44a 7033i bk12: 48a 7130i bk13: 44a 7068i bk14: 0a 7262i bk15: 6a 7237i 
dram_util_bins: 0 0 0 0 0 0 0 0 0 0
dram_eff_bins: 0 0 0 0 0 0 0 0 0 0
mrqq: max=10 avg=0.158634
Memory Partition 2: 
Cache L2_bank_004:
MSHR contents

Cache L2_bank_005:
MSHR contents

In Dram Latency Queue (total = 0): 
DRAM[2]: 16 bks, busW=4 BL=8 CL=12, tRRD=2 tCCD=6, tRCD=12 tRAS=28 tRP=12 tRC=40
n_cmd=7262 n_nop=7076 n_act=7 n_pre=0 n_req=91 n_rd=176 n_write=3 bw_util=0.0493
n_activity=869 dram_eff=0.412
bk0: 0a 7260i bk1: 0a 7261i bk2: 0a 7262i bk3: 2a 7240i bk4: 0a 7262i bk5: 2a 7244i bk6: 0a 7263i bk7: 0a 7263i bk8: 0a 7264i bk9: 2a 7242i bk10: 40a 7134i bk11: 44a 7051i bk12: 44a 7021i bk13: 42a 7066i bk14: 0a 7259i bk15: 0a 7260i 
dram_util_bins: 0 0 0 0 0 0 0 0 0 0
dram_eff_bins: 0 0 0 0 0 0 0 0 0 0
mrqq: max=8 avg=0.0952906
Memory Partition 3: 
Cache L2_bank_006:
MSHR contents

Cache L2_bank_007:
MSHR contents

In Dram Latency Queue (total = 0): 
DRAM[3]: 16 bks, busW=4 BL=8 CL=12, tRRD=2 tCCD=6, tRCD=12 tRAS=28 tRP=12 tRC=40
n_cmd=7262 n_nop=7082 n_act=6 n_pre=0 n_req=88 n_rd=172 n_write=2 bw_util=0.04792
n_activity=811 dram_eff=0.4291
bk0: 0a 7261i bk1: 0a 7262i bk2: 0a 7263i bk3: 2a 7240i bk4: 0a 7262i bk5: 2a 7240i bk6: 0a 7261i bk7: 0a 7261i bk8: 0a 7264i bk9: 0a 7264i bk10: 40a 7133i bk11: 44a 7042i bk12: 44a 7029i bk13: 40a 7035i bk14: 0a 7259i bk15: 0a 7259i 
dram_util_bins: 0 0 0 0 0 0 0 0 0 0
dram_eff_bins: 0 0 0 0 0 0 0 0 0 0
mrqq: max=6 avg=0.0870284
Memory Partition 4: 
Cache L2_bank_008:
MSHR contents

Cache L2_bank_009:
MSHR contents

In Dram Latency Queue (total = 0): 
DRAM[4]: 16 bks, busW=4 BL=8 CL=12, tRRD=2 tCCD=6, tRCD=12 tRAS=28 tRP=12 tRC=40
n_cmd=7262 n_nop=7059 n_act=10 n_pre=3 n_req=97 n_rd=186 n_write=4 bw_util=0.05233
n_activity=1019 dram_eff=0.3729
bk0: 0a 7259i bk1: 2a 7239i bk2: 0a 7260i bk3: 0a 7260i bk4: 0a 7261i bk5: 2a 7241i bk6: 0a 7263i bk7: 0a 7264i bk8: 0a 7267i bk9: 0a 7267i bk10: 48a 7063i bk11: 46a 7015i bk12: 44a 7027i bk13: 40a 7079i bk14: 4a 7238i bk15: 0a 7257i 
dram_util_bins: 0 0 0 0 0 0 0 0 0 0
dram_eff_bins: 0 0 0 0 0 0 0 0 0 0
mrqq: max=6 avg=0.0845497
Memory Partition 5: 
Cache L2_bank_010:
MSHR contents

Cache L2_bank_011:
MSHR contents

In Dram Latency Queue (total = 0): 
DRAM[5]: 16 bks, busW=4 BL=8 CL=12, tRRD=2 tCCD=6, tRCD=12 tRAS=28 tRP=12 tRC=40
n_cmd=7262 n_nop=7083 n_act=5 n_pre=0 n_req=87 n_rd=174 n_write=0 bw_util=0.04792
n_activity=882 dram_eff=0.3946
bk0: 0a 7258i bk1: 0a 7260i bk2: 0a 7260i bk3: 0a 7261i bk4: 0a 7261i bk5: 0a 7262i bk6: 0a 7263i bk7: 0a 7263i bk8: 0a 7264i bk9: 0a 7266i bk10: 44a 7128i bk11: 44a 7034i bk12: 44a 7043i bk13: 40a 7148i bk14: 2a 7243i bk15: 0a 7258i 
dram_util_bins: 0 0 0 0 0 0 0 0 0 0
dram_eff_bins: 0 0 0 0 0 0 0 0 0 0
mrqq: max=10 avg=0.112503

========= L2 cache stats =========
L2_cache_bank[0]: Access = 61, Miss = 46, Miss_rate = 0.754, Pending_hits = 3, Reservation_fails = 116
L2_cache_bank[1]: Access = 44, Miss = 44, Miss_rate = 1.000, Pending_hits = 0, Reservation_fails = 0
L2_cache_bank[2]: Access = 47, Miss = 46, Miss_rate = 0.979, Pending_hits = 0, Reservation_fails = 0
L2_cache_bank[3]: Access = 47, Miss = 47, Miss_rate = 1.000, Pending_hits = 0, Reservation_fails = 0
L2_cache_bank[4]: Access = 42, Miss = 42, Miss_rate = 1.000, Pending_hits = 0, Reservation_fails = 0
L2_cache_bank[5]: Access = 46, Miss = 46, Miss_rate = 1.000, Pending_hits = 0, Reservation_fails = 0
L2_cache_bank[6]: Access = 45, Miss = 42, Miss_rate = 0.933, Pending_hits = 0, Reservation_fails = 0
L2_cache_bank[7]: Access = 46, Miss = 44, Miss_rate = 0.957, Pending_hits = 0, Reservation_fails = 0
L2_cache_bank[8]: Access = 56, Miss = 48, Miss_rate = 0.857, Pending_hits = 0, Reservation_fails = 0
L2_cache_bank[9]: Access = 45, Miss = 45, Miss_rate = 1.000, Pending_hits = 0, Reservation_fails = 0
L2_cache_bank[10]: Access = 45, Miss = 45, Miss_rate = 1.000, Pending_hits = 0, Reservation_fails = 0
L2_cache_bank[11]: Access = 42, Miss = 42, Miss_rate = 1.000, Pending_hits = 0, Reservation_fails = 0
L2_total_cache_accesses = 566
L2_total_cache_misses = 537
L2_total_cache_miss_rate = 0.9488
L2_total_cache_pending_hits = 3
L2_total_cache_reservation_fails = 116
L2_total_cache_breakdown:
	L2_cache_stats_breakdown[GLOBAL_ACC_R][MISS] = 523
	L2_cache_stats_breakdown[GLOBAL_ACC_W][HIT] = 16
	L2_cache_stats_breakdown[GLOBAL_ACC_W][MISS] = 10
	L2_cache_stats_breakdown[INST_ACC_R][HIT] = 10
	L2_cache_stats_breakdown[INST_ACC_R][HIT_RESERVED] = 3
	L2_cache_stats_breakdown[INST_ACC_R][MISS] = 4
	L2_cache_stats_breakdown[INST_ACC_R][RESERVATION_FAIL] = 116
L2_cache_data_port_util = 0.001
L2_cache_fill_port_util = 0.032

icnt_total_pkts_mem_to_simt=2726
icnt_total_pkts_simt_to_mem=592
LD_mem_lat_dist  0 0 0 0 0 0 0 0 0 0 0 0 0 0 0 0 0 0 0 0 0 0 0 0 0 0 0
ST_mem_lat_dist  0 0 0 0 0 0 0 0 0 0 0 0 0 0 0 0 0 0 0 0 0 0 0 0 0 0 0
----------------------------Interconnect-DETAILS--------------------------------
Class 0:
Packet latency average = 10.8825
	minimum = 6
	maximum = 56
Network latency average = 10.0919
	minimum = 6
	maximum = 51
Slowest packet = 340
Flit latency average = 8.97107
	minimum = 6
	maximum = 47
Slowest flit = 889
Fragmentation average = 0
	minimum = 0
	maximum = 0
Injected packet rate average = 0.00781941
	minimum = 0.00592672 (at node 13)
	maximum = 0.0141882 (at node 1)
Accepted packet rate average = 0.00781941
	minimum = 0.00592672 (at node 13)
	maximum = 0.0141882 (at node 1)
Injected flit rate average = 0.0229194
	minimum = 0.00592672 (at node 13)
	maximum = 0.0526221 (at node 14)
Accepted flit rate average= 0.0229194
	minimum = 0.0075431 (at node 18)
	maximum = 0.0522629 (at node 1)
Injected packet length average = 2.9311
Accepted packet length average = 2.9311
Total in-flight flits = 0 (0 measured)
====== Overall Traffic Statistics ======
====== Traffic class 0 ======
Packet latency average = 10.8825 (1 samples)
	minimum = 6 (1 samples)
	maximum = 56 (1 samples)
Network latency average = 10.0919 (1 samples)
	minimum = 6 (1 samples)
	maximum = 51 (1 samples)
Flit latency average = 8.97107 (1 samples)
	minimum = 6 (1 samples)
	maximum = 47 (1 samples)
Fragmentation average = 0 (1 samples)
	minimum = 0 (1 samples)
	maximum = 0 (1 samples)
Injected packet rate average = 0.00781941 (1 samples)
	minimum = 0.00592672 (1 samples)
	maximum = 0.0141882 (1 samples)
Accepted packet rate average = 0.00781941 (1 samples)
	minimum = 0.00592672 (1 samples)
	maximum = 0.0141882 (1 samples)
Injected flit rate average = 0.0229194 (1 samples)
	minimum = 0.00592672 (1 samples)
	maximum = 0.0526221 (1 samples)
Accepted flit rate average = 0.0229194 (1 samples)
	minimum = 0.0075431 (1 samples)
	maximum = 0.0522629 (1 samples)
Injected packet size average = 2.9311 (1 samples)
Accepted packet size average = 2.9311 (1 samples)
Hops average = 1 (1 samples)
----------------------------END-of-Interconnect-DETAILS-------------------------


gpgpu_simulation_time = 0 days, 0 hrs, 0 min, 3 sec (3 sec)
gpgpu_simulation_rate = 152991 (inst/sec)
gpgpu_simulation_rate = 1856 (cycle/sec)
GPGPU-Sim: synchronize waiting for inactive GPU simulation
GPGPU-Sim API: Stream Manager State
GPGPU-Sim: detected inactive GPU simulation thread

GPGPU-Sim PTX: cudaLaunch for 0x0x403820 (mode=performance simulation) on stream 0
GPGPU-Sim PTX: pushing kernel '_Z6KernelP4NodePiPbS2_S1_S2_i' to stream 0, gridDim= (256,1,1) blockDim = (256,1,1) 
kernel '_Z6KernelP4NodePiPbS2_S1_S2_i' transfer to GPU hardware scheduler
GPGPU-Sim uArch: Shader 8 bind to kernel 2 '_Z6KernelP4NodePiPbS2_S1_S2_i'
Shared mode is : 1
GPGPU-Sim uArch: core:  8, cta: 0 initialized @(1,5568)
GPGPU-Sim uArch: Shader 9 bind to kernel 2 '_Z6KernelP4NodePiPbS2_S1_S2_i'
Shared mode is : 1
GPGPU-Sim uArch: core:  9, cta: 0 initialized @(1,5568)
GPGPU-Sim uArch: Shader 10 bind to kernel 2 '_Z6KernelP4NodePiPbS2_S1_S2_i'
Shared mode is : 1
GPGPU-Sim uArch: core: 10, cta: 0 initialized @(1,5568)
GPGPU-Sim uArch: Shader 11 bind to kernel 2 '_Z6KernelP4NodePiPbS2_S1_S2_i'
Shared mode is : 1
GPGPU-Sim uArch: core: 11, cta: 0 initialized @(1,5568)
GPGPU-Sim uArch: Shader 12 bind to kernel 2 '_Z6KernelP4NodePiPbS2_S1_S2_i'
Shared mode is : 1
GPGPU-Sim uArch: core: 12, cta: 0 initialized @(1,5568)
GPGPU-Sim uArch: Shader 13 bind to kernel 2 '_Z6KernelP4NodePiPbS2_S1_S2_i'
Shared mode is : 1
GPGPU-Sim uArch: core: 13, cta: 0 initialized @(1,5568)
GPGPU-Sim uArch: Shader 0 bind to kernel 2 '_Z6KernelP4NodePiPbS2_S1_S2_i'
Shared mode is : 1
GPGPU-Sim uArch: core:  0, cta: 0 initialized @(1,5568)
GPGPU-Sim uArch: Shader 1 bind to kernel 2 '_Z6KernelP4NodePiPbS2_S1_S2_i'
Shared mode is : 1
GPGPU-Sim uArch: core:  1, cta: 0 initialized @(1,5568)
GPGPU-Sim uArch: Shader 2 bind to kernel 2 '_Z6KernelP4NodePiPbS2_S1_S2_i'
Shared mode is : 1
GPGPU-Sim uArch: core:  2, cta: 0 initialized @(1,5568)
GPGPU-Sim uArch: Shader 3 bind to kernel 2 '_Z6KernelP4NodePiPbS2_S1_S2_i'
Shared mode is : 1
GPGPU-Sim uArch: core:  3, cta: 0 initialized @(1,5568)
GPGPU-Sim uArch: Shader 4 bind to kernel 2 '_Z6KernelP4NodePiPbS2_S1_S2_i'
Shared mode is : 1
GPGPU-Sim uArch: core:  4, cta: 0 initialized @(1,5568)
GPGPU-Sim uArch: Shader 5 bind to kernel 2 '_Z6KernelP4NodePiPbS2_S1_S2_i'
Shared mode is : 1
GPGPU-Sim uArch: core:  5, cta: 0 initialized @(1,5568)
GPGPU-Sim uArch: Shader 6 bind to kernel 2 '_Z6KernelP4NodePiPbS2_S1_S2_i'
Shared mode is : 1
GPGPU-Sim uArch: core:  6, cta: 0 initialized @(1,5568)
GPGPU-Sim uArch: Shader 7 bind to kernel 2 '_Z6KernelP4NodePiPbS2_S1_S2_i'
Shared mode is : 1
GPGPU-Sim uArch: core:  7, cta: 0 initialized @(1,5568)
Shared mode is : 1
GPGPU-Sim uArch: core:  8, cta: 1 initialized @(2,5568)
Shared mode is : 1
GPGPU-Sim uArch: core:  9, cta: 1 initialized @(2,5568)
Shared mode is : 1
GPGPU-Sim uArch: core: 10, cta: 1 initialized @(2,5568)
Shared mode is : 1
GPGPU-Sim uArch: core: 11, cta: 1 initialized @(2,5568)
Shared mode is : 1
GPGPU-Sim uArch: core: 12, cta: 1 initialized @(2,5568)
Shared mode is : 1
GPGPU-Sim uArch: core: 13, cta: 1 initialized @(2,5568)
Shared mode is : 1
GPGPU-Sim uArch: core:  0, cta: 1 initialized @(2,5568)
Shared mode is : 1
GPGPU-Sim uArch: core:  1, cta: 1 initialized @(2,5568)
Shared mode is : 1
GPGPU-Sim uArch: core:  2, cta: 1 initialized @(2,5568)
Shared mode is : 1
GPGPU-Sim uArch: core:  3, cta: 1 initialized @(2,5568)
Shared mode is : 1
GPGPU-Sim uArch: core:  4, cta: 1 initialized @(2,5568)
Shared mode is : 1
GPGPU-Sim uArch: core:  5, cta: 1 initialized @(2,5568)
Shared mode is : 1
GPGPU-Sim uArch: core:  6, cta: 1 initialized @(2,5568)
Shared mode is : 1
GPGPU-Sim uArch: core:  7, cta: 1 initialized @(2,5568)
Shared mode is : 1
GPGPU-Sim uArch: core:  8, cta: 2 initialized @(3,5568)
Shared mode is : 1
GPGPU-Sim uArch: core:  9, cta: 2 initialized @(3,5568)
Shared mode is : 1
GPGPU-Sim uArch: core: 10, cta: 2 initialized @(3,5568)
Shared mode is : 1
GPGPU-Sim uArch: core: 11, cta: 2 initialized @(3,5568)
Shared mode is : 1
GPGPU-Sim uArch: core: 12, cta: 2 initialized @(3,5568)
Shared mode is : 1
GPGPU-Sim uArch: core: 13, cta: 2 initialized @(3,5568)
Shared mode is : 1
GPGPU-Sim uArch: core:  0, cta: 2 initialized @(3,5568)
Shared mode is : 1
GPGPU-Sim uArch: core:  1, cta: 2 initialized @(3,5568)
Shared mode is : 1
GPGPU-Sim uArch: core:  2, cta: 2 initialized @(3,5568)
Shared mode is : 1
GPGPU-Sim uArch: core:  3, cta: 2 initialized @(3,5568)
Shared mode is : 1
GPGPU-Sim uArch: core:  4, cta: 2 initialized @(3,5568)
Shared mode is : 1
GPGPU-Sim uArch: core:  5, cta: 2 initialized @(3,5568)
Shared mode is : 1
GPGPU-Sim uArch: core:  6, cta: 2 initialized @(3,5568)
Shared mode is : 1
GPGPU-Sim uArch: core:  7, cta: 2 initialized @(3,5568)
Shared mode is : 1
GPGPU-Sim uArch: core:  8, cta: 3 initialized @(4,5568)
Shared mode is : 1
GPGPU-Sim uArch: core:  9, cta: 3 initialized @(4,5568)
Shared mode is : 1
GPGPU-Sim uArch: core: 10, cta: 3 initialized @(4,5568)
Shared mode is : 1
GPGPU-Sim uArch: core: 11, cta: 3 initialized @(4,5568)
Shared mode is : 1
GPGPU-Sim uArch: core: 12, cta: 3 initialized @(4,5568)
Shared mode is : 1
GPGPU-Sim uArch: core: 13, cta: 3 initialized @(4,5568)
Shared mode is : 1
GPGPU-Sim uArch: core:  0, cta: 3 initialized @(4,5568)
Shared mode is : 1
GPGPU-Sim uArch: core:  1, cta: 3 initialized @(4,5568)
Shared mode is : 1
GPGPU-Sim uArch: core:  2, cta: 3 initialized @(4,5568)
Shared mode is : 1
GPGPU-Sim uArch: core:  3, cta: 3 initialized @(4,5568)
Shared mode is : 1
GPGPU-Sim uArch: core:  4, cta: 3 initialized @(4,5568)
Shared mode is : 1
GPGPU-Sim uArch: core:  5, cta: 3 initialized @(4,5568)
Shared mode is : 1
GPGPU-Sim uArch: core:  6, cta: 3 initialized @(4,5568)
Shared mode is : 1
GPGPU-Sim uArch: core:  7, cta: 3 initialized @(4,5568)
Shared mode is : 1
GPGPU-Sim uArch: core:  8, cta: 4 initialized @(5,5568)
Shared mode is : 1
GPGPU-Sim uArch: core:  9, cta: 4 initialized @(5,5568)
Shared mode is : 1
GPGPU-Sim uArch: core: 10, cta: 4 initialized @(5,5568)
Shared mode is : 1
GPGPU-Sim uArch: core: 11, cta: 4 initialized @(5,5568)
Shared mode is : 1
GPGPU-Sim uArch: core: 12, cta: 4 initialized @(5,5568)
Shared mode is : 1
GPGPU-Sim uArch: core: 13, cta: 4 initialized @(5,5568)
Shared mode is : 1
GPGPU-Sim uArch: core:  0, cta: 4 initialized @(5,5568)
Shared mode is : 1
GPGPU-Sim uArch: core:  1, cta: 4 initialized @(5,5568)
Shared mode is : 1
GPGPU-Sim uArch: core:  2, cta: 4 initialized @(5,5568)
Shared mode is : 1
GPGPU-Sim uArch: core:  3, cta: 4 initialized @(5,5568)
Shared mode is : 1
GPGPU-Sim uArch: core:  4, cta: 4 initialized @(5,5568)
Shared mode is : 1
GPGPU-Sim uArch: core:  5, cta: 4 initialized @(5,5568)
Shared mode is : 1
GPGPU-Sim uArch: core:  6, cta: 4 initialized @(5,5568)
Shared mode is : 1
GPGPU-Sim uArch: core:  7, cta: 4 initialized @(5,5568)
Shared mode is : 1
GPGPU-Sim uArch: core:  8, cta: 5 initialized @(6,5568)
Shared mode is : 1
GPGPU-Sim uArch: core:  9, cta: 5 initialized @(6,5568)
[...]
GPGPU-Sim uArch: Shader 10 finished CTA #8 (904,773895), 1 CTAs running
GPGPU-Sim uArch: Shader 8 finished CTA #9 (905,773895), 0 CTAs running
GPGPU-Sim uArch: Shader 8 empty (release kernel 8 '_Z6KernelP4NodePiPbS2_S1_S2_i').
GPGPU-Sim uArch: Shader 4 finished CTA #9 (906,773895), 3 CTAs running
GPGPU-Sim uArch: Shader 11 finished CTA #3 (907,773895), 3 CTAs running
GPGPU-Sim uArch: Shader 1 finished CTA #4 (910,773895), 0 CTAs running
GPGPU-Sim uArch: Shader 1 empty (release kernel 8 '_Z6KernelP4NodePiPbS2_S1_S2_i').
GPGPU-Sim uArch: Shader 6 finished CTA #4 (916,773895), 1 CTAs running
GPGPU-Sim uArch: Shader 4 finished CTA #1 (919,773895), 2 CTAs running
GPGPU-Sim uArch: Shader 7 finished CTA #4 (922,773895), 1 CTAs running
GPGPU-Sim uArch: Shader 0 finished CTA #9 (923,773895), 1 CTAs running
GPGPU-Sim uArch: Shader 3 finished CTA #8 (931,773895), 2 CTAs running
GPGPU-Sim uArch: Shader 5 finished CTA #2 (936,773895), 3 CTAs running
GPGPU-Sim uArch: Shader 9 finished CTA #6 (936,773895), 2 CTAs running
GPGPU-Sim uArch: Shader 0 finished CTA #6 (957,773895), 0 CTAs running
GPGPU-Sim uArch: Shader 0 empty (release kernel 8 '_Z6KernelP4NodePiPbS2_S1_S2_i').
GPGPU-Sim uArch: Shader 7 finished CTA #6 (965,773895), 0 CTAs running
GPGPU-Sim uArch: Shader 7 empty (release kernel 8 '_Z6KernelP4NodePiPbS2_S1_S2_i').
GPGPU-Sim uArch: Shader 3 finished CTA #6 (968,773895), 1 CTAs running
GPGPU-Sim uArch: Shader 6 finished CTA #6 (970,773895), 0 CTAs running
GPGPU-Sim uArch: Shader 6 empty (release kernel 8 '_Z6KernelP4NodePiPbS2_S1_S2_i').
GPGPU-Sim uArch: Shader 3 finished CTA #9 (982,773895), 0 CTAs running
GPGPU-Sim uArch: Shader 3 empty (release kernel 8 '_Z6KernelP4NodePiPbS2_S1_S2_i').
GPGPU-Sim uArch: Shader 4 finished CTA #6 (983,773895), 1 CTAs running
GPGPU-Sim uArch: Shader 5 finished CTA #5 (985,773895), 2 CTAs running
GPGPU-Sim uArch: Shader 11 finished CTA #6 (1009,773895), 2 CTAs running
GPGPU-Sim uArch: Shader 5 finished CTA #3 (1010,773895), 1 CTAs running
GPGPU-Sim uArch: Shader 10 finished CTA #9 (1020,773895), 0 CTAs running
GPGPU-Sim uArch: Shader 10 empty (release kernel 8 '_Z6KernelP4NodePiPbS2_S1_S2_i').
GPGPU-Sim uArch: Shader 4 finished CTA #8 (1021,773895), 0 CTAs running
GPGPU-Sim uArch: Shader 4 empty (release kernel 8 '_Z6KernelP4NodePiPbS2_S1_S2_i').
GPGPU-Sim uArch: Shader 5 finished CTA #1 (1330,773895), 0 CTAs running
GPGPU-Sim uArch: Shader 5 empty (release kernel 8 '_Z6KernelP4NodePiPbS2_S1_S2_i').
GPGPU-Sim uArch: Shader 12 finished CTA #6 (1431,773895), 3 CTAs running
GPGPU-Sim uArch: Shader 11 finished CTA #9 (1482,773895), 1 CTAs running
GPGPU-Sim uArch: Shader 13 finished CTA #8 (1488,773895), 1 CTAs running
GPGPU-Sim uArch: Shader 12 finished CTA #2 (1605,773895), 2 CTAs running
GPGPU-Sim uArch: Shader 11 finished CTA #5 (1656,773895), 0 CTAs running
GPGPU-Sim uArch: Shader 11 empty (release kernel 8 '_Z6KernelP4NodePiPbS2_S1_S2_i').
GPGPU-Sim uArch: Shader 13 finished CTA #4 (1662,773895), 0 CTAs running
GPGPU-Sim uArch: Shader 13 empty (release kernel 8 '_Z6KernelP4NodePiPbS2_S1_S2_i').
GPGPU-Sim uArch: Shader 12 finished CTA #9 (1729,773895), 1 CTAs running
GPGPU-Sim uArch: Shader 9 finished CTA #5 (1803,773895), 1 CTAs running
GPGPU-Sim uArch: Shader 12 finished CTA #5 (1903,773895), 0 CTAs running
GPGPU-Sim uArch: Shader 12 empty (release kernel 8 '_Z6KernelP4NodePiPbS2_S1_S2_i').
GPGPU-Sim uArch: Shader 9 finished CTA #9 (1971,773895), 0 CTAs running
GPGPU-Sim uArch: Shader 9 empty (release kernel 8 '_Z6KernelP4NodePiPbS2_S1_S2_i').
GPGPU-Sim uArch: GPU detected kernel '_Z6KernelP4NodePiPbS2_S1_S2_i' finished on shader 9.
kernel_name = _Z6KernelP4NodePiPbS2_S1_S2_i 
kernel_launch_uid = 8 
gpu_sim_cycle = 1972
gpu_sim_insn = 459012
gpu_ipc =     232.7647
gpu_tot_sim_cycle = 775867
gpu_tot_sim_insn = 11832539
gpu_tot_ipc =      15.2507
gpu_tot_issued_cta = 0
gpu_stall_dramfull = 1848364
gpu_stall_icnt2sh    = 4860860
gpu_total_sim_rate=15347

========= Core cache stats =========
L1I_cache:
	L1I_total_cache_accesses = 797796
	L1I_total_cache_misses = 519
	L1I_total_cache_miss_rate = 0.0007
	L1I_total_cache_pending_hits = 0
	L1I_total_cache_reservation_fails = 3822
L1D_cache:
	L1D_cache_core[0]: Access = 87121, Miss = 72750, Miss_rate = 0.835, Pending_hits = 5949, Reservation_fails = 599986
	L1D_cache_core[1]: Access = 86929, Miss = 72516, Miss_rate = 0.834, Pending_hits = 5868, Reservation_fails = 608203
	L1D_cache_core[2]: Access = 89074, Miss = 74111, Miss_rate = 0.832, Pending_hits = 6059, Reservation_fails = 609486
	L1D_cache_core[3]: Access = 85971, Miss = 71312, Miss_rate = 0.829, Pending_hits = 6002, Reservation_fails = 601624
	L1D_cache_core[4]: Access = 89243, Miss = 74114, Miss_rate = 0.830, Pending_hits = 6049, Reservation_fails = 615040
	L1D_cache_core[5]: Access = 88900, Miss = 73393, Miss_rate = 0.826, Pending_hits = 6042, Reservation_fails = 602206
	L1D_cache_core[6]: Access = 87151, Miss = 72466, Miss_rate = 0.831, Pending_hits = 5997, Reservation_fails = 602297
	L1D_cache_core[7]: Access = 85814, Miss = 71495, Miss_rate = 0.833, Pending_hits = 5840, Reservation_fails = 596057
	L1D_cache_core[8]: Access = 85440, Miss = 71134, Miss_rate = 0.833, Pending_hits = 5883, Reservation_fails = 601619
	L1D_cache_core[9]: Access = 86076, Miss = 71320, Miss_rate = 0.829, Pending_hits = 5797, Reservation_fails = 601366
	L1D_cache_core[10]: Access = 90258, Miss = 75134, Miss_rate = 0.832, Pending_hits = 6234, Reservation_fails = 617144
	L1D_cache_core[11]: Access = 86343, Miss = 72258, Miss_rate = 0.837, Pending_hits = 5992, Reservation_fails = 612070
	L1D_cache_core[12]: Access = 85711, Miss = 71055, Miss_rate = 0.829, Pending_hits = 5889, Reservation_fails = 597462
	L1D_cache_core[13]: Access = 89067, Miss = 74254, Miss_rate = 0.834, Pending_hits = 6081, Reservation_fails = 621030
	L1D_total_cache_accesses = 1223098
	L1D_total_cache_misses = 1017312
	L1D_total_cache_miss_rate = 0.8318
	L1D_total_cache_pending_hits = 83682
	L1D_total_cache_reservation_fails = 8485590
	L1D_cache_data_port_util = 0.012
	L1D_cache_fill_port_util = 0.059
L1C_cache:
	L1C_total_cache_accesses = 0
	L1C_total_cache_misses = 0
	L1C_total_cache_pending_hits = 0
	L1C_total_cache_reservation_fails = 0
L1T_cache:
	L1T_total_cache_accesses = 0
	L1T_total_cache_misses = 0
	L1T_total_cache_pending_hits = 0
	L1T_total_cache_reservation_fails = 0

Total_core_cache_stats:
	Total_core_cache_stats_breakdown[GLOBAL_ACC_R][HIT] = 119343
	Total_core_cache_stats_breakdown[GLOBAL_ACC_R][HIT_RESERVED] = 83472
	Total_core_cache_stats_breakdown[GLOBAL_ACC_R][MISS] = 607239
	Total_core_cache_stats_breakdown[GLOBAL_ACC_R][RESERVATION_FAIL] = 6170731
	Total_core_cache_stats_breakdown[GLOBAL_ACC_W][HIT] = 2761
	Total_core_cache_stats_breakdown[GLOBAL_ACC_W][HIT_RESERVED] = 210
	Total_core_cache_stats_breakdown[GLOBAL_ACC_W][MISS] = 410073
	Total_core_cache_stats_breakdown[GLOBAL_ACC_W][RESERVATION_FAIL] = 2314859
	Total_core_cache_stats_breakdown[INST_ACC_R][HIT] = 797277
	Total_core_cache_stats_breakdown[INST_ACC_R][MISS] = 519
	Total_core_cache_stats_breakdown[INST_ACC_R][RESERVATION_FAIL] = 3822
Shader 0 warp_id issue ditsribution:
warp_id:
0, 1, 2, 3, 4, 5, 6, 7, 8, 9, 10, 11, 12, 13, 14, 15, 16, 17, 18, 19, 20, 21, 22, 23, 24, 25, 26, 27, 28, 29, 30, 31, 32, 33, 34, 35, 36, 37, 38, 39, 40, 41, 42, 43, 44, 45, 46, 47, 48, 49, 50, 51, 52, 53, 54, 55, 56, 57, 58, 59, 60, 61, 62, 63, 64, 65, 66, 67, 68, 69, 70, 71, 72, 73, 74, 75, 76, 77, 78, 79, 
distro:
984, 1107, 856, 842, 748, 1006, 873, 860, 836, 910, 1098, 898, 853, 911, 877, 677, 1504, 1610, 1451, 1379, 1395, 1528, 1516, 1426, 1563, 1804, 1412, 1251, 1182, 1264, 1193, 1513, 1253, 1046, 1356, 1306, 1089, 1263, 1329, 1562, 1257, 1110, 1444, 1348, 1356, 1399, 1344, 1383, 1388, 1483, 1974, 1480, 1609, 1226, 1650, 1650, 1380, 1428, 1442, 1294, 1358, 1219, 1470, 1521, 1659, 1406, 1231, 1411, 1443, 1694, 1529, 1338, 1236, 1537, 1703, 1441, 1617, 1129, 1437, 1292, 
gpgpu_n_tot_thrd_icount = 47990624
gpgpu_n_tot_w_icount = 1499707
gpgpu_n_stall_shd_mem = 9315326
gpgpu_n_mem_read_local = 0
gpgpu_n_mem_write_local = 0
gpgpu_n_mem_read_global = 607239
gpgpu_n_mem_write_global = 413044
gpgpu_n_mem_texture = 0
gpgpu_n_mem_const = 0
gpgpu_n_load_insn  = 2020697
gpgpu_n_store_insn = 678173
gpgpu_n_shmem_insn = 180831
gpgpu_n_tex_insn = 0
gpgpu_n_const_mem_insn = 0
gpgpu_n_param_mem_insn = 0
gpgpu_n_shmem_bkconflict = 0
gpgpu_n_cache_bkconflict = 0
gpgpu_n_intrawarp_mshr_merge = 0
gpgpu_n_cmem_portconflict = 0
gpgpu_stall_shd_mem[c_mem][bk_conf] = 0
gpgpu_stall_shd_mem[c_mem][mshr_rc] = 0
gpgpu_stall_shd_mem[c_mem][icnt_rc] = 0
gpgpu_stall_shd_mem[c_mem][data_port_stall] = 0
gpgpu_stall_shd_mem[t_mem][mshr_rc] = 0
gpgpu_stall_shd_mem[t_mem][icnt_rc] = 0
gpgpu_stall_shd_mem[t_mem][data_port_stall] = 0
gpgpu_stall_shd_mem[s_mem][bk_conf] = 0
gpgpu_stall_shd_mem[gl_mem][bk_conf] = 0
gpgpu_stall_shd_mem[gl_mem][coal_stall] = 9315326
gpgpu_stall_shd_mem[gl_mem][data_port_stall] = 0
gpgpu_stall_shd_mem[g_mem_ld][mshr_rc] = 0
gpgpu_stall_shd_mem[g_mem_ld][icnt_rc] = 0
gpgpu_stall_shd_mem[g_mem_ld][wb_icnt_rc] = 0
gpgpu_stall_shd_mem[g_mem_ld][wb_rsrv_fail] = 0
gpgpu_stall_shd_mem[g_mem_st][mshr_rc] = 0
gpgpu_stall_shd_mem[g_mem_st][icnt_rc] = 0
gpgpu_stall_shd_mem[g_mem_st][wb_icnt_rc] = 0
gpgpu_stall_shd_mem[g_mem_st][wb_rsrv_fail] = 0
gpgpu_stall_shd_mem[l_mem_ld][mshr_rc] = 0
gpgpu_stall_shd_mem[l_mem_ld][icnt_rc] = 0
gpgpu_stall_shd_mem[l_mem_ld][wb_icnt_rc] = 0
gpgpu_stall_shd_mem[l_mem_ld][wb_rsrv_fail] = 0
gpgpu_stall_shd_mem[l_mem_st][mshr_rc] = 0
gpgpu_stall_shd_mem[l_mem_st][icnt_rc] = 0
gpgpu_stall_shd_mem[l_mem_ld][wb_icnt_rc] = 0
gpgpu_stall_shd_mem[l_mem_ld][wb_rsrv_fail] = 0
gpu_reg_bank_conflict_stalls = 0
Warp Occupancy Distribution:
Stall:15393820	W0_Idle:323936	W0_Scoreboard:3530767	W1:402595	W2:182527	W3:117863	W4:91990	W5:72618	W6:61105	W7:49777	W8:38133	W9:36469	W10:31497	W11:30111	W12:26242	W13:25598	W14:22490	W15:20801	W16:16534	W17:14461	W18:13665	W19:13528	W20:10375	W21:11114	W22:12594	W23:12412	W24:12506	W25:11480	W26:10908	W27:8758	W28:5286	W29:3279	W30:1217	W31:624	W32:131150
traffic_breakdown_coretomem[GLOBAL_ACC_R] = 4857912 {8:607239,}
traffic_breakdown_coretomem[GLOBAL_ACC_W] = 16542112 {40:412778,72:81,136:185,}
traffic_breakdown_coretomem[INST_ACC_R] = 448 {8:56,}
traffic_breakdown_memtocore[GLOBAL_ACC_R] = 82584504 {136:607239,}
traffic_breakdown_memtocore[GLOBAL_ACC_W] = 3304352 {8:413044,}
traffic_breakdown_memtocore[INST_ACC_R] = 7616 {136:56,}
Memory Partition 0: 
Cache L2_bank_000:
MSHR contents

Cache L2_bank_001:
MSHR contents

In Dram Latency Queue (total = 0): 
DRAM[0]: 16 bks, busW=4 BL=8 CL=12, tRRD=2 tCCD=6, tRCD=12 tRAS=28 tRP=12 tRC=40
n_cmd=1011994 n_nop=985708 n_act=3485 n_pre=3469 n_req=10218 n_rd=16276 n_write=3056 bw_util=0.03821
n_activity=176902 dram_eff=0.2186
bk0: 946a 1002457i bk1: 948a 1002104i bk2: 1006a 1000550i bk3: 1004a 1000385i bk4: 956a 1001203i bk5: 940a 1002335i bk6: 1182a 998588i bk7: 1208a 997955i bk8: 1102a 999264i bk9: 1132a 999111i bk10: 1046a 1000424i bk11: 1122a 999514i bk12: 948a 1003111i bk13: 988a 1003386i bk14: 856a 1005511i bk15: 892a 1005720i 
dram_util_bins: 0 0 0 0 0 0 0 0 0 0
dram_eff_bins: 0 0 0 0 0 0 0 0 0 0
mrqq: max=16 avg=0.0878227
Memory Partition 1: 
Cache L2_bank_002:
MSHR contents

Cache L2_bank_003:
MSHR contents

In Dram Latency Queue (total = 0): 
DRAM[1]: 16 bks, busW=4 BL=8 CL=12, tRRD=2 tCCD=6, tRCD=12 tRAS=28 tRP=12 tRC=40
n_cmd=1011994 n_nop=983244 n_act=3993 n_pre=3977 n_req=11011 n_rd=17382 n_write=3398 bw_util=0.04107
n_activity=194700 dram_eff=0.2135
bk0: 1016a 1001581i bk1: 1036a 1000746i bk2: 1002a 1000483i bk3: 942a 1001310i bk4: 1040a 1001161i bk5: 1108a 999750i bk6: 1342a 997446i bk7: 1320a 996235i bk8: 1190a 998574i bk9: 1192a 998250i bk10: 1138a 999684i bk11: 1168a 999200i bk12: 1048a 1002811i bk13: 1008a 1003099i bk14: 900a 1006536i bk15: 932a 1006107i 
dram_util_bins: 0 0 0 0 0 0 0 0 0 0
dram_eff_bins: 0 0 0 0 0 0 0 0 0 0
mrqq: max=13 avg=0.0646753
Memory Partition 2: 
Cache L2_bank_004:
MSHR contents

Cache L2_bank_005:
MSHR contents

In Dram Latency Queue (total = 0): 
DRAM[2]: 16 bks, busW=4 BL=8 CL=12, tRRD=2 tCCD=6, tRCD=12 tRAS=28 tRP=12 tRC=40
n_cmd=1011994 n_nop=984912 n_act=3622 n_pre=3606 n_req=10511 n_rd=16660 n_write=3194 bw_util=0.03924
n_activity=182205 dram_eff=0.2179
bk0: 962a 1002088i bk1: 1010a 999893i bk2: 932a 1001372i bk3: 962a 1000865i bk4: 986a 1001457i bk5: 996a 1001029i bk6: 1178a 998391i bk7: 1152a 999059i bk8: 1158a 998588i bk9: 1168a 997379i bk10: 1148a 999086i bk11: 1150a 998416i bk12: 1050a 1002234i bk13: 1032a 1002981i bk14: 880a 1006356i bk15: 896a 1005594i 
dram_util_bins: 0 0 0 0 0 0 0 0 0 0
dram_eff_bins: 0 0 0 0 0 0 0 0 0 0
mrqq: max=16 avg=0.0863958
Memory Partition 3: 
Cache L2_bank_006:
MSHR contents

Cache L2_bank_007:
MSHR contents

In Dram Latency Queue (total = 0): 
DRAM[3]: 16 bks, busW=4 BL=8 CL=12, tRRD=2 tCCD=6, tRCD=12 tRAS=28 tRP=12 tRC=40
n_cmd=1011994 n_nop=982722 n_act=4068 n_pre=4052 n_req=11217 n_rd=17694 n_write=3458 bw_util=0.0418
n_activity=198746 dram_eff=0.2129
bk0: 1044a 1000526i bk1: 1102a 999187i bk2: 968a 1000749i bk3: 1040a 999107i bk4: 1058a 1000608i bk5: 1128a 999419i bk6: 1218a 998086i bk7: 1358a 995213i bk8: 1236a 997682i bk9: 1248a 997130i bk10: 1106a 999826i bk11: 1180a 998238i bk12: 1038a 1002747i bk13: 1024a 1002926i bk14: 970a 1005642i bk15: 976a 1005433i 
dram_util_bins: 0 0 0 0 0 0 0 0 0 0
dram_eff_bins: 0 0 0 0 0 0 0 0 0 0
mrqq: max=16 avg=0.0752336
Memory Partition 4: 
Cache L2_bank_008:
MSHR contents

Cache L2_bank_009:
MSHR contents

In Dram Latency Queue (total = 0): 
DRAM[4]: 16 bks, busW=4 BL=8 CL=12, tRRD=2 tCCD=6, tRCD=12 tRAS=28 tRP=12 tRC=40
n_cmd=1011994 n_nop=984936 n_act=3523 n_pre=3507 n_req=10654 n_rd=16600 n_write=3428 bw_util=0.03958
n_activity=186141 dram_eff=0.2152
bk0: 962a 1001535i bk1: 920a 1001968i bk2: 1064a 998816i bk3: 988a 1000870i bk4: 988a 1001660i bk5: 996a 1000748i bk6: 1248a 996658i bk7: 1256a 996070i bk8: 1134a 998140i bk9: 1134a 998857i bk10: 1150a 998928i bk11: 1138a 998339i bk12: 932a 1003096i bk13: 888a 1004390i bk14: 912a 1005941i bk15: 890a 1005695i 
dram_util_bins: 0 0 0 0 0 0 0 0 0 0
dram_eff_bins: 0 0 0 0 0 0 0 0 0 0
mrqq: max=16 avg=0.0948385
Memory Partition 5: 
Cache L2_bank_010:
MSHR contents

Cache L2_bank_011:
MSHR contents

In Dram Latency Queue (total = 0): 
DRAM[5]: 16 bks, busW=4 BL=8 CL=12, tRRD=2 tCCD=6, tRCD=12 tRAS=28 tRP=12 tRC=40
n_cmd=1011994 n_nop=983790 n_act=3850 n_pre=3834 n_req=10894 n_rd=17046 n_write=3474 bw_util=0.04055
n_activity=193575 dram_eff=0.212
bk0: 988a 1001414i bk1: 980a 1001414i bk2: 1012a 1000385i bk3: 1028a 1000354i bk4: 1098a 999545i bk5: 1112a 999168i bk6: 1310a 996325i bk7: 1330a 995903i bk8: 1210a 997922i bk9: 1180a 997665i bk10: 1050a 1000231i bk11: 1134a 999345i bk12: 982a 1003124i bk13: 918a 1004134i bk14: 804a 1007597i bk15: 910a 1006670i 
dram_util_bins: 0 0 0 0 0 0 0 0 0 0
dram_eff_bins: 0 0 0 0 0 0 0 0 0 0
mrqq: max=16 avg=0.0721309

========= L2 cache stats =========
L2_cache_bank[0]: Access = 80343, Miss = 4021, Miss_rate = 0.050, Pending_hits = 10, Reservation_fails = 256
L2_cache_bank[1]: Access = 81594, Miss = 4117, Miss_rate = 0.050, Pending_hits = 7, Reservation_fails = 13
L2_cache_bank[2]: Access = 79742, Miss = 4338, Miss_rate = 0.054, Pending_hits = 11, Reservation_fails = 0
L2_cache_bank[3]: Access = 81576, Miss = 4353, Miss_rate = 0.053, Pending_hits = 14, Reservation_fails = 1
L2_cache_bank[4]: Access = 79617, Miss = 4147, Miss_rate = 0.052, Pending_hits = 16, Reservation_fails = 224
L2_cache_bank[5]: Access = 83293, Miss = 4183, Miss_rate = 0.050, Pending_hits = 15, Reservation_fails = 225
L2_cache_bank[6]: Access = 82103, Miss = 4319, Miss_rate = 0.053, Pending_hits = 11, Reservation_fails = 0
L2_cache_bank[7]: Access = 83235, Miss = 4528, Miss_rate = 0.054, Pending_hits = 16, Reservation_fails = 1
L2_cache_bank[8]: Access = 120606, Miss = 4195, Miss_rate = 0.035, Pending_hits = 10, Reservation_fails = 666
L2_cache_bank[9]: Access = 83949, Miss = 4105, Miss_rate = 0.049, Pending_hits = 13, Reservation_fails = 257
L2_cache_bank[10]: Access = 81247, Miss = 4227, Miss_rate = 0.052, Pending_hits = 14, Reservation_fails = 1
L2_cache_bank[11]: Access = 83034, Miss = 4296, Miss_rate = 0.052, Pending_hits = 7, Reservation_fails = 20
L2_total_cache_accesses = 1020339
L2_total_cache_misses = 50829
L2_total_cache_miss_rate = 0.0498
L2_total_cache_pending_hits = 144
L2_total_cache_reservation_fails = 1664
L2_total_cache_breakdown:
	L2_cache_stats_breakdown[GLOBAL_ACC_R][HIT] = 563619
	L2_cache_stats_breakdown[GLOBAL_ACC_R][HIT_RESERVED] = 21
	L2_cache_stats_breakdown[GLOBAL_ACC_R][MISS] = 43599
	L2_cache_stats_breakdown[GLOBAL_ACC_R][RESERVATION_FAIL] = 1540
	L2_cache_stats_breakdown[GLOBAL_ACC_W][HIT] = 405698
	L2_cache_stats_breakdown[GLOBAL_ACC_W][HIT_RESERVED] = 120
	L2_cache_stats_breakdown[GLOBAL_ACC_W][MISS] = 7226
	L2_cache_stats_breakdown[GLOBAL_ACC_W][RESERVATION_FAIL] = 8
	L2_cache_stats_breakdown[INST_ACC_R][HIT] = 49
	L2_cache_stats_breakdown[INST_ACC_R][HIT_RESERVED] = 3
	L2_cache_stats_breakdown[INST_ACC_R][MISS] = 4
	L2_cache_stats_breakdown[INST_ACC_R][RESERVATION_FAIL] = 116
L2_cache_data_port_util = 0.288
L2_cache_fill_port_util = 0.022

icnt_total_pkts_mem_to_simt=3449519
icnt_total_pkts_simt_to_mem=1434019
LD_mem_lat_dist  0 0 0 0 0 0 0 0 0 0 0 0 0 0 0 0 0 0 0 0 0 0 0 0 0 0 0
ST_mem_lat_dist  0 0 0 0 0 0 0 0 0 0 0 0 0 0 0 0 0 0 0 0 0 0 0 0 0 0 0
----------------------------Interconnect-DETAILS--------------------------------
Class 0:
Packet latency average = 10.8035
	minimum = 6
	maximum = 44
Network latency average = 9.87638
	minimum = 6
	maximum = 37
Slowest packet = 2039826
Flit latency average = 8.67879
	minimum = 6
	maximum = 33
Slowest flit = 4882922
Fragmentation average = 0
	minimum = 0
	maximum = 0
Injected packet rate average = 0.0211421
	minimum = 0.0162272 (at node 2)
	maximum = 0.025355 (at node 17)
Accepted packet rate average = 0.0211421
	minimum = 0.0162272 (at node 2)
	maximum = 0.025355 (at node 17)
Injected flit rate average = 0.0627243
	minimum = 0.0162272 (at node 2)
	maximum = 0.122718 (at node 17)
Accepted flit rate average= 0.0627243
	minimum = 0.0212982 (at node 19)
	maximum = 0.111055 (at node 12)
Injected packet length average = 2.96679
Accepted packet length average = 2.96679
Total in-flight flits = 0 (0 measured)
====== Overall Traffic Statistics ======
====== Traffic class 0 ======
Packet latency average = 33.3608 (8 samples)
	minimum = 6 (8 samples)
	maximum = 340.5 (8 samples)
Network latency average = 21.7515 (8 samples)
	minimum = 6 (8 samples)
	maximum = 245.25 (8 samples)
Flit latency average = 16.8379 (8 samples)
	minimum = 6 (8 samples)
	maximum = 242.875 (8 samples)
Fragmentation average = 0.0365028 (8 samples)
	minimum = 0 (8 samples)
	maximum = 165.375 (8 samples)
Injected packet rate average = 0.0538278 (8 samples)
	minimum = 0.0422305 (8 samples)
	maximum = 0.0912999 (8 samples)
Accepted packet rate average = 0.0538278 (8 samples)
	minimum = 0.0422305 (8 samples)
	maximum = 0.0912999 (8 samples)
Injected flit rate average = 0.133601 (8 samples)
	minimum = 0.0564629 (8 samples)
	maximum = 0.248008 (8 samples)
Accepted flit rate average = 0.133601 (8 samples)
	minimum = 0.0684074 (8 samples)
	maximum = 0.228551 (8 samples)
Injected packet size average = 2.48201 (8 samples)
Accepted packet size average = 2.48201 (8 samples)
Hops average = 1 (8 samples)
----------------------------END-of-Interconnect-DETAILS-------------------------


gpgpu_simulation_time = 0 days, 0 hrs, 12 min, 51 sec (771 sec)
gpgpu_simulation_rate = 15347 (inst/sec)
gpgpu_simulation_rate = 1006 (cycle/sec)
GPGPU-Sim: synchronize waiting for inactive GPU simulation
GPGPU-Sim API: Stream Manager State
GPGPU-Sim: detected inactive GPU simulation thread
Kernel Executed 8 times
Processing time: 770228.125000 (ms)
Result stored in result.txt
