

        *** GPGPU-Sim Simulator Version 3.2.2  [build 17315] ***


GPGPU-Sim PTX: simulation mode 0 (can change with PTX_SIM_MODE_FUNC environment variable:
               1=functional simulation only, 0=detailed performance simulator)
GPGPU-Sim: Configuration options:

-network_mode                           1 # Interconnection network mode
-inter_config_file   config_fermi_islip.icnt # Interconnection network config file
-gpgpu_ptx_use_cuobjdump                    1 # Use cuobjdump to extract ptx and sass from binaries
-gpgpu_experimental_lib_support                    0 # Try to extract code from cuda libraries [Broken because of unknown cudaGetExportTable]
-gpgpu_ptx_convert_to_ptxplus                    1 # Convert SASS (native ISA) to ptxplus and run ptxplus
-gpgpu_ptx_force_max_capability                   20 # Force maximum compute capability
-gpgpu_ptx_inst_debug_to_file                    0 # Dump executed instructions' debug information to file
-gpgpu_ptx_inst_debug_file       inst_debug.txt # Executed instructions' debug output file
-gpgpu_ptx_inst_debug_thread_uid                    1 # Thread UID for executed instructions' debug output
-gpgpu_simd_model                       1 # 1 = post-dominator
-gpgpu_shader_core_pipeline              1536:32 # shader core pipeline config, i.e., {<nthread>:<warpsize>}
-gpgpu_tex_cache:l1  4:128:24,L:R:m:N,F:128:4,128:2 # per-shader L1 texture cache  (READ-ONLY) config  {<nsets>:<bsize>:<assoc>,<rep>:<wr>:<alloc>:<wr_alloc>,<mshr>:<N>:<merge>,<mq>:<rf>}
-gpgpu_const_cache:l1 64:64:2,L:R:f:N,A:2:32,4 # per-shader L1 constant memory cache  (READ-ONLY) config  {<nsets>:<bsize>:<assoc>,<rep>:<wr>:<alloc>:<wr_alloc>,<mshr>:<N>:<merge>,<mq>} 
-gpgpu_cache:il1     4:128:4,L:R:f:N,A:2:32,4 # shader L1 instruction cache config  {<nsets>:<bsize>:<assoc>,<rep>:<wr>:<alloc>:<wr_alloc>,<mshr>:<N>:<merge>,<mq>} 
-gpgpu_cache:dl1     32:128:4,L:L:m:N,A:32:8,8 # per-shader L1 data cache config  {<nsets>:<bsize>:<assoc>,<rep>:<wr>:<alloc>:<wr_alloc>,<mshr>:<N>:<merge>,<mq> | none}
-gpgpu_cache:dl1PrefL1                 none # per-shader L1 data cache config  {<nsets>:<bsize>:<assoc>,<rep>:<wr>:<alloc>:<wr_alloc>,<mshr>:<N>:<merge>,<mq> | none}
-gpgpu_cache:dl1PreShared                 none # per-shader L1 data cache config  {<nsets>:<bsize>:<assoc>,<rep>:<wr>:<alloc>:<wr_alloc>,<mshr>:<N>:<merge>,<mq> | none}
-gmem_skip_L1D                          0 # global memory access skip L1D cache (implements -Xptxas -dlcm=cg, default=no skip)
-gpgpu_perfect_mem                      0 # enable perfect memory mode (no cache miss)
-n_regfile_gating_group                    4 # group of lanes that should be read/written together)
-gpgpu_clock_gated_reg_file                    0 # enable clock gated reg file for power calculations
-gpgpu_clock_gated_lanes                    0 # enable clock gated lanes for power calculations
-gpgpu_shader_registers                32768 # Number of registers per shader core. Limits number of concurrent CTAs. (default 8192)
-gpgpu_shader_cta                       8 # Maximum number of concurrent CTAs in shader (default 8)
-gpgpu_n_clusters                      14 # number of processing clusters
-gpgpu_n_cores_per_cluster                    1 # number of simd cores per cluster
-gpgpu_n_cluster_ejection_buffer_size                    8 # number of packets in ejection buffer
-gpgpu_n_ldst_response_buffer_size                    2 # number of response packets in ld/st unit ejection buffer
-gpgpu_shmem_size                   16384 # Size of shared memory per shader core (default 16kB)
-gpgpu_shmem_size                   49152 # Size of shared memory per shader core (default 16kB)
-gpgpu_shmem_size_PrefL1                16384 # Size of shared memory per shader core (default 16kB)
-gpgpu_shmem_size_PrefShared                16384 # Size of shared memory per shader core (default 16kB)
-gpgpu_shmem_num_banks                   32 # Number of banks in the shared memory in each shader core (default 16)
-gpgpu_shmem_limited_broadcast                    0 # Limit shared memory to do one broadcast per cycle (default on)
-gpgpu_shmem_warp_parts                    1 # Number of portions a warp is divided into for shared memory bank conflict check 
-gpgpu_warpdistro_shader                   -1 # Specify which shader core to collect the warp size distribution from
-gpgpu_warp_issue_shader                    0 # Specify which shader core to collect the warp issue distribution from
-gpgpu_local_mem_map                    1 # Mapping from local memory space address to simulated GPU physical address space (default = enabled)
-gpgpu_num_reg_banks                   16 # Number of register banks (default = 8)
-gpgpu_reg_bank_use_warp_id                    0 # Use warp ID in mapping registers to banks (default = off)
-gpgpu_operand_collector_num_units_sp                    6 # number of collector units (default = 4)
-gpgpu_operand_collector_num_units_sfu                    8 # number of collector units (default = 4)
-gpgpu_operand_collector_num_units_mem                    2 # number of collector units (default = 2)
-gpgpu_operand_collector_num_units_gen                    0 # number of collector units (default = 0)
-gpgpu_operand_collector_num_in_ports_sp                    2 # number of collector unit in ports (default = 1)
-gpgpu_operand_collector_num_in_ports_sfu                    1 # number of collector unit in ports (default = 1)
-gpgpu_operand_collector_num_in_ports_mem                    1 # number of collector unit in ports (default = 1)
-gpgpu_operand_collector_num_in_ports_gen                    0 # number of collector unit in ports (default = 0)
-gpgpu_operand_collector_num_out_ports_sp                    2 # number of collector unit in ports (default = 1)
-gpgpu_operand_collector_num_out_ports_sfu                    1 # number of collector unit in ports (default = 1)
-gpgpu_operand_collector_num_out_ports_mem                    1 # number of collector unit in ports (default = 1)
-gpgpu_operand_collector_num_out_ports_gen                    0 # number of collector unit in ports (default = 0)
-gpgpu_coalesce_arch                   13 # Coalescing arch (default = 13, anything else is off for now)
-gpgpu_num_sched_per_core                    2 # Number of warp schedulers per core
-gpgpu_max_insn_issue_per_warp                    1 # Max number of instructions that can be issued per warp in one cycle by scheduler
-gpgpu_simt_core_sim_order                    1 # Select the simulation order of cores in a cluster (0=Fix, 1=Round-Robin)
-gpgpu_pipeline_widths        2,1,1,2,1,1,2 # Pipeline widths ID_OC_SP,ID_OC_SFU,ID_OC_MEM,OC_EX_SP,OC_EX_SFU,OC_EX_MEM,EX_WB
-gpgpu_num_sp_units                     2 # Number of SP units (default=1)
-gpgpu_num_sfu_units                    1 # Number of SF units (default=1)
-gpgpu_num_mem_units                    1 # Number if ldst units (default=1) WARNING: not hooked up to anything
-gpgpu_scheduler                      lrr # Scheduler configuration: < lrr | gto | two_level_active > If two_level_active:<num_active_warps>:<inner_prioritization>:<outer_prioritization>For complete list of prioritization values see shader.h enum scheduler_prioritization_typeDefault: gto
-gpgpu_dram_scheduler                    1 # 0 = fifo, 1 = FR-FCFS (defaul)
-gpgpu_dram_partition_queues              8:8:8:8 # i2$:$2d:d2$:$2i
-l2_ideal                               0 # Use a ideal L2 cache that always hit
-gpgpu_cache:dl2     64:128:8,L:B:m:W,A:32:4,4:0,32 # unified banked L2 data cache config  {<nsets>:<bsize>:<assoc>,<rep>:<wr>:<alloc>:<wr_alloc>,<mshr>:<N>:<merge>,<mq>}
-gpgpu_cache:dl2_texture_only                    0 # L2 cache used for texture only
-gpgpu_n_mem                            6 # number of memory modules (e.g. memory controllers) in gpu
-gpgpu_n_sub_partition_per_mchannel                    2 # number of memory subpartition in each memory module
-gpgpu_n_mem_per_ctrlr                    2 # number of memory chips per memory controller
-gpgpu_memlatency_stat                    0 # track and display latency statistics 0x2 enables MC, 0x4 enables queue logs
-gpgpu_frfcfs_dram_sched_queue_size                   16 # 0 = unlimited (default); # entries per chip
-gpgpu_dram_return_queue_size                  114 # 0 = unlimited (default); # entries per chip
-gpgpu_dram_buswidth                    4 # default = 4 bytes (8 bytes per cycle at DDR)
-gpgpu_dram_burst_length                    8 # Burst length of each DRAM request (default = 4 data bus cycle)
-dram_data_command_freq_ratio                    4 # Frequency ratio between DRAM data bus and command bus (default = 2 times, i.e. DDR)
-gpgpu_dram_timing_opt nbk=16:CCD=2:RRD=6:RCD=12:RAS=28:RP=12:RC=40: CL=12:WL=4:CDLR=5:WR=12:nbkgrp=4:CCDL=3:RTPL=2 # DRAM timing parameters = {nbk:tCCD:tRRD:tRCD:tRAS:tRP:tRC:CL:WL:tCDLR:tWR:nbkgrp:tCCDL:tRTPL}
-rop_latency                          120 # ROP queue latency (default 85)
-dram_latency                         100 # DRAM latency (default 30)
-gpgpu_mem_addr_mapping dramid@8;00000000.00000000.00000000.00000000.0000RRRR.RRRRRRRR.BBBCCCCB.CCSSSSSS # mapping memory address to dram model {dramid@<start bit>;<memory address map>}
-gpgpu_mem_addr_test                    0 # run sweep test to check address mapping for aliased address
-gpgpu_mem_address_mask                    1 # 0 = old addressing mask, 1 = new addressing mask, 2 = new add. mask + flipped bank sel and chip sel bits
-gpuwattch_xml_file         gpuwattch.xml # GPUWattch XML file
-power_simulation_enabled                    0 # Turn on power simulator (1=On, 0=Off)
-power_per_cycle_dump                    0 # Dump detailed power output each cycle
-power_trace_enabled                    0 # produce a file for the power trace (1=On, 0=Off)
-power_trace_zlevel                     6 # Compression level of the power trace output log (0=no comp, 9=highest)
-steady_power_levels_enabled                    0 # produce a file for the steady power levels (1=On, 0=Off)
-steady_state_definition                  8:4 # allowed deviation:number of samples
-gpgpu_max_cycle                        0 # terminates gpu simulation early (0 = no limit)
-gpgpu_max_insn                         0 # terminates gpu simulation early (0 = no limit)
-gpgpu_max_cta                          0 # terminates gpu simulation early (0 = no limit)
-gpgpu_runtime_stat             5000000:0 # display runtime statistics such as dram utilization {<freq>:<flag>}
-liveness_message_freq                    1 # Minimum number of seconds between simulation liveness messages (0 = always print)
-gpgpu_flush_l1_cache                    0 # Flush L1 cache at the end of each kernel call
-gpgpu_flush_l2_cache                    0 # Flush L2 cache at the end of each kernel call
-gpgpu_deadlock_detect                    1 # Stop the simulation at deadlock (1=on (default), 0=off)
-gpgpu_ptx_instruction_classification                    0 # if enabled will classify ptx instruction types per kernel (Max 255 kernels now)
-gpgpu_ptx_sim_mode                     0 # Select between Performance (default) or Functional simulation (1)
-gpgpu_clock_domains 575.0:575.0:575.0:750.0 # Clock Domain Frequencies in MhZ {<Core Clock>:<ICNT Clock>:<L2 Clock>:<DRAM Clock>}
-gpgpu_max_concurrent_kernel                    8 # maximum kernels that can run concurrently on GPU
-gpgpu_cflog_interval                    0 # Interval between each snapshot in control flow logger
-visualizer_enabled                     0 # Turn on visualizer output (1=On, 0=Off)
-visualizer_outputfile                 NULL # Specifies the output log file for visualizer
-visualizer_zlevel                      6 # Compression level of the visualizer output log (0=no comp, 9=highest)
-trace_enabled                          0 # Turn on traces
-trace_components                    none # comma seperated list of traces to enable. Complete list found in trace_streams.tup. Default none
-trace_sampling_core                    0 # The core which is printed using CORE_DPRINTF. Default 0
-trace_sampling_memory_partition                   -1 # The memory partition which is printed using MEMPART_DPRINTF. Default -1 (i.e. all)
-enable_ptx_file_line_stats                    0 # Turn on PTX source line statistic profiling. (1 = On)
-ptx_line_stats_filename gpgpu_inst_stats.txt # Output file for PTX source line statistics.
-save_embedded_ptx                      0 # saves ptx files embedded in binary as <n>.ptx
-keep                                   0 # keep intermediate files created by GPGPU-Sim when interfacing with external programs
-gpgpu_ptx_save_converted_ptxplus                    1 # Saved converted ptxplus to a file
-ptx_opcode_latency_int         4,13,4,5,145 # Opcode latencies for integers <ADD,MAX,MUL,MAD,DIV>Default 1,1,19,25,145
-ptx_opcode_latency_fp          4,13,4,5,39 # Opcode latencies for single precision floating points <ADD,MAX,MUL,MAD,DIV>Default 1,1,1,1,30
-ptx_opcode_latency_dp         8,19,8,8,330 # Opcode latencies for double precision floating points <ADD,MAX,MUL,MAD,DIV>Default 8,8,8,8,335
-ptx_opcode_initiation_int            1,2,2,1,8 # Opcode initiation intervals for integers <ADD,MAX,MUL,MAD,DIV>Default 1,1,4,4,32
-ptx_opcode_initiation_fp            1,2,1,1,4 # Opcode initiation intervals for single precision floating points <ADD,MAX,MUL,MAD,DIV>Default 1,1,1,1,5
-ptx_opcode_initiation_dp         8,16,8,8,130 # Opcode initiation intervals for double precision floating points <ADD,MAX,MUL,MAD,DIV>Default 8,8,8,8,130
DRAM Timing Options:
nbk                                    16 # number of banks
CCD                                     2 # column to column delay
RRD                                     6 # minimal delay between activation of rows in different banks
RCD                                    12 # row to column delay
RAS                                    28 # time needed to activate row
RP                                     12 # time needed to precharge (deactivate) row
RC                                     40 # row cycle time
CDLR                                    5 # switching from write to read (changes tWTR)
WR                                     12 # last data-in to row precharge
CL                                     12 # CAS latency
WL                                      4 # Write latency
nbkgrp                                  4 # number of bank groups
CCDL                                    3 # column to column delay between accesses to different bank groups
RTPL                                    2 # read to precharge delay between accesses to different bank groups
Total number of memory sub partition = 12
addr_dec_mask[CHIP]  = 0000000000000000 	high:64 low:0
addr_dec_mask[BK]    = 000000000000e100 	high:16 low:8
addr_dec_mask[ROW]   = 000000000fff0000 	high:28 low:16
addr_dec_mask[COL]   = 0000000000001eff 	high:13 low:0
addr_dec_mask[BURST] = 000000000000003f 	high:6 low:0
sub_partition_id_mask = 0000000000000100
GPGPU-Sim uArch: clock freqs: 575000000.000000:575000000.000000:575000000.000000:750000000.000000
GPGPU-Sim uArch: clock periods: 0.00000000173913043478:0.00000000173913043478:0.00000000173913043478:0.00000000133333333333
*** Initializing Memory Statistics ***
GPGPU-Sim uArch: interconnect node map (shaderID+MemID to icntID)
GPGPU-Sim uArch: Memory nodes ID start from index: 14
GPGPU-Sim uArch:    0   1   2   3   4
GPGPU-Sim uArch:    5   6   7   8   9
GPGPU-Sim uArch:   10  11  12  13  14
GPGPU-Sim uArch:   15  16  17  18  19
GPGPU-Sim uArch:   20  21  22  23  24
GPGPU-Sim uArch:   25
GPGPU-Sim uArch: interconnect node reverse map (icntID to shaderID+MemID)
GPGPU-Sim uArch: Memory nodes start from ID: 14
GPGPU-Sim uArch:    0   1   2   3   4
GPGPU-Sim uArch:    5   6   7   8   9
GPGPU-Sim uArch:   10  11  12  13  14
GPGPU-Sim uArch:   15  16  17  18  19
GPGPU-Sim uArch:   20  21  22  23  24
GPGPU-Sim uArch:   25
574549d0b2d6c8e3f7a870d3a23040c9  /home/vishwesh/Desktop/Register_Sharing_Pbm/ispass2009-benchmarks/bin/release/BFS
GPGPU-Sim uArch: performance model initialization complete.
GPGPU-Sim PTX: __cudaRegisterFatBinary, fat_cubin_handle = 1, filename=bfs.cu
self exe links to: /home/vishwesh/Desktop/Register_Sharing_Pbm/ispass2009-benchmarks/bin/release/BFS
Running md5sum using "md5sum /home/vishwesh/Desktop/Register_Sharing_Pbm/ispass2009-benchmarks/bin/release/BFS "
Running cuobjdump using "$CUDA_INSTALL_PATH/bin/cuobjdump -ptx -elf -sass /home/vishwesh/Desktop/Register_Sharing_Pbm/ispass2009-benchmarks/bin/release/BFS > _cuobjdump_complete_output_GDt8jQ"
Parsing file _cuobjdump_complete_output_GDt8jQ
######### cuobjdump parser ########
## Adding new section PTX
Adding ptx filename: _cuobjdump_1.ptx
Adding arch: sm_30
Adding identifier: bfs.cu
## Adding new section ELF
Adding arch: sm_30
Adding identifier: bfs.cu
## Adding new section ELF
Adding arch: sm_20
Adding identifier: bfs.cu
## Adding new section PTX
Adding ptx filename: _cuobjdump_2.ptx
Adding arch: sm_20
Adding identifier: bfs.cu
## Adding new section ELF
Adding arch: sm_10
Adding identifier: bfs.cu
## Adding new section PTX
Adding ptx filename: _cuobjdump_3.ptx
Adding arch: sm_10
Adding identifier: bfs.cu
Done parsing!!!
GPGPU-Sim: WARNING: Capability >= 20 are not supported in PTXPlus
	Setting forced_max_capability to 19
GPGPU-Sim PTX: __cudaRegisterFunction _Z6KernelP4NodePiPbS2_S1_S2_i : hostFun 0x0x403820, fat_cubin_handle = 1
GPGPU-Sim PTX: converting EMBEDDED .ptx file to ptxplus 
RUNNING cuobjdump_to_ptxplus ...
Parsing .elf file _cuobjdump_3.elf
()

Finished parsing .elf file _cuobjdump_3.elf
Parsing .ptx file _cuobjdump_3.ptx
Finished parsing .ptx file _cuobjdump_3.ptx
Parsing .sass file _cuobjdump_3.sass
Finished parsing .sass file _cuobjdump_3.sass
DONE. 
GPGPU-Sim PTX: calling cuobjdump_to_ptxplus
commandline: $GPGPUSIM_ROOT/build/$GPGPUSIM_CONFIG/cuobjdump_to_ptxplus/cuobjdump_to_ptxplus _cuobjdump_3.ptx _cuobjdump_3.sass _cuobjdump_3.elf _ptxplus_UQYWIS
GPGPU-Sim PTX: DONE converting EMBEDDED .ptx file to ptxplus 
GPGPU-Sim PTX: allocating constant region for "constant1_Z6KernelP4NodePiPbS2_S1_S2_i" from 0x100 to 0x104 (global memory space) 1
GPGPU-Sim PTX: PTX uses two scalar type intruction with literal operand.
GPGPU-Sim PTX: instruction assembly for function '_Z6KernelP4NodePiPbS2_S1_S2_i'...   done.
GPGPU-Sim PTX: finding reconvergence points for '_Z6KernelP4NodePiPbS2_S1_S2_i'...
GPGPU-Sim PTX: Warning detected predicated return/exit.
GPGPU-Sim PTX: Warning detected predicated return/exit.
GPGPU-Sim PTX: Warning detected predicated return/exit.
GPGPU-Sim PTX: Finding dominators for '_Z6KernelP4NodePiPbS2_S1_S2_i'...
GPGPU-Sim PTX: Finding immediate dominators for '_Z6KernelP4NodePiPbS2_S1_S2_i'...
GPGPU-Sim PTX: Finding postdominators for '_Z6KernelP4NodePiPbS2_S1_S2_i'...
GPGPU-Sim PTX: Finding immediate postdominators for '_Z6KernelP4NodePiPbS2_S1_S2_i'...
GPGPU-Sim PTX: pre-decoding instructions for '_Z6KernelP4NodePiPbS2_S1_S2_i'...
GPGPU-Sim PTX: reconvergence points for _Z6KernelP4NodePiPbS2_S1_S2_i...
GPGPU-Sim PTX:  1 (potential) branch divergence @  PC=0x0e0 (_1.ptx:60) @$p0.ne bra l0x00000168;
GPGPU-Sim PTX:    immediate post dominator      @  PC=0x168 (_1.ptx:77) l0x00000168: nop;
GPGPU-Sim PTX:  2 (potential) branch divergence @  PC=0x188 (_1.ptx:81) @$p0.ne bra l0x000000b8;
GPGPU-Sim PTX:    immediate post dominator      @  PC=0x190 (_1.ptx:82) nop;
GPGPU-Sim PTX: ... end of reconvergence points for _Z6KernelP4NodePiPbS2_S1_S2_i
GPGPU-Sim PTX: ... done pre-decoding instructions for '_Z6KernelP4NodePiPbS2_S1_S2_i'.
GPGPU-Sim PTX: finished parsing EMBEDDED .ptx file _1.ptx
Adding _cuobjdump_3.ptx with cubin handle 1
GPGPU-Sim PTX: extracting embedded .ptx to temporary file "_ptx_41Ds8U"
Running: cat _ptx_41Ds8U | sed 's/.version 1.5/.version 1.4/' | sed 's/, texmode_independent//' | sed 's/\(\.extern \.const\[1\] .b8 \w\+\)\[\]/\1\[1\]/' | sed 's/const\[.\]/const\[0\]/g' > _ptx2_j10YxX
GPGPU-Sim PTX: generating ptxinfo using "$CUDA_INSTALL_PATH/bin/ptxas --gpu-name=sm_20 -v _ptx2_j10YxX --output-file  /dev/null 2> _ptx_41Ds8Uinfo"
GPGPU-Sim PTX: Kernel '_Z6KernelP4NodePiPbS2_S1_S2_i' : regs=18, lmem=0, smem=0, cmem=84
GPGPU-Sim PTX: removing ptxinfo using "rm -f _ptx_41Ds8U _ptx2_j10YxX _ptx_41Ds8Uinfo"
GPGPU-Sim PTX: loading globals with explicit initializers... 
GPGPU-Sim PTX: finished loading globals (0 bytes total).
GPGPU-Sim PTX: loading constants with explicit initializers...  done.
Reading File
Input file: ./data/graph65536.txt
Read File
Copied Everything to GPU memory

GPGPU-Sim PTX: cudaLaunch for 0x0x403820 (mode=performance simulation) on stream 0
GPGPU-Sim PTX: pushing kernel '_Z6KernelP4NodePiPbS2_S1_S2_i' to stream 0, gridDim= (256,1,1) blockDim = (256,1,1) 
kernel '_Z6KernelP4NodePiPbS2_S1_S2_i' transfer to GPU hardware scheduler
GPGPU-Sim uArch: Shader 1 bind to kernel 1 '_Z6KernelP4NodePiPbS2_S1_S2_i'
GPGPU-Sim uArch: CTA/core = 6, limited by: threads regs
GPGPU-Sim uArch: core:  1, cta: 0 initialized @(1,0)
GPGPU-Sim uArch: Shader 2 bind to kernel 1 '_Z6KernelP4NodePiPbS2_S1_S2_i'
GPGPU-Sim uArch: core:  2, cta: 0 initialized @(1,0)
GPGPU-Sim uArch: Shader 3 bind to kernel 1 '_Z6KernelP4NodePiPbS2_S1_S2_i'
GPGPU-Sim uArch: core:  3, cta: 0 initialized @(1,0)
GPGPU-Sim uArch: Shader 4 bind to kernel 1 '_Z6KernelP4NodePiPbS2_S1_S2_i'
GPGPU-Sim uArch: core:  4, cta: 0 initialized @(1,0)
GPGPU-Sim uArch: Shader 5 bind to kernel 1 '_Z6KernelP4NodePiPbS2_S1_S2_i'
GPGPU-Sim uArch: core:  5, cta: 0 initialized @(1,0)
GPGPU-Sim uArch: Shader 6 bind to kernel 1 '_Z6KernelP4NodePiPbS2_S1_S2_i'
GPGPU-Sim uArch: core:  6, cta: 0 initialized @(1,0)
GPGPU-Sim uArch: Shader 7 bind to kernel 1 '_Z6KernelP4NodePiPbS2_S1_S2_i'
GPGPU-Sim uArch: core:  7, cta: 0 initialized @(1,0)
GPGPU-Sim uArch: Shader 8 bind to kernel 1 '_Z6KernelP4NodePiPbS2_S1_S2_i'
GPGPU-Sim uArch: core:  8, cta: 0 initialized @(1,0)
GPGPU-Sim uArch: Shader 9 bind to kernel 1 '_Z6KernelP4NodePiPbS2_S1_S2_i'
GPGPU-Sim uArch: core:  9, cta: 0 initialized @(1,0)
GPGPU-Sim uArch: Shader 10 bind to kernel 1 '_Z6KernelP4NodePiPbS2_S1_S2_i'
GPGPU-Sim uArch: core: 10, cta: 0 initialized @(1,0)
GPGPU-Sim uArch: Shader 11 bind to kernel 1 '_Z6KernelP4NodePiPbS2_S1_S2_i'
GPGPU-Sim uArch: core: 11, cta: 0 initialized @(1,0)
GPGPU-Sim uArch: Shader 12 bind to kernel 1 '_Z6KernelP4NodePiPbS2_S1_S2_i'
GPGPU-Sim uArch: core: 12, cta: 0 initialized @(1,0)
GPGPU-Sim uArch: Shader 13 bind to kernel 1 '_Z6KernelP4NodePiPbS2_S1_S2_i'
GPGPU-Sim uArch: core: 13, cta: 0 initialized @(1,0)
GPGPU-Sim uArch: Shader 0 bind to kernel 1 '_Z6KernelP4NodePiPbS2_S1_S2_i'
GPGPU-Sim uArch: core:  0, cta: 0 initialized @(1,0)
GPGPU-Sim uArch: core:  1, cta: 1 initialized @(2,0)
GPGPU-Sim uArch: core:  2, cta: 1 initialized @(2,0)
GPGPU-Sim uArch: core:  3, cta: 1 initialized @(2,0)
GPGPU-Sim uArch: core:  4, cta: 1 initialized @(2,0)
GPGPU-Sim uArch: core:  5, cta: 1 initialized @(2,0)
GPGPU-Sim uArch: core:  6, cta: 1 initialized @(2,0)
GPGPU-Sim uArch: core:  7, cta: 1 initialized @(2,0)
GPGPU-Sim uArch: core:  8, cta: 1 initialized @(2,0)
GPGPU-Sim uArch: core:  9, cta: 1 initialized @(2,0)
GPGPU-Sim uArch: core: 10, cta: 1 initialized @(2,0)
GPGPU-Sim uArch: core: 11, cta: 1 initialized @(2,0)
GPGPU-Sim uArch: core: 12, cta: 1 initialized @(2,0)
GPGPU-Sim uArch: core: 13, cta: 1 initialized @(2,0)
GPGPU-Sim uArch: core:  0, cta: 1 initialized @(2,0)
GPGPU-Sim uArch: core:  1, cta: 2 initialized @(3,0)
GPGPU-Sim uArch: core:  2, cta: 2 initialized @(3,0)
GPGPU-Sim uArch: core:  3, cta: 2 initialized @(3,0)
GPGPU-Sim uArch: core:  4, cta: 2 initialized @(3,0)
GPGPU-Sim uArch: core:  5, cta: 2 initialized @(3,0)
GPGPU-Sim uArch: core:  6, cta: 2 initialized @(3,0)
GPGPU-Sim uArch: core:  7, cta: 2 initialized @(3,0)
GPGPU-Sim uArch: core:  8, cta: 2 initialized @(3,0)
GPGPU-Sim uArch: core:  9, cta: 2 initialized @(3,0)
GPGPU-Sim uArch: core: 10, cta: 2 initialized @(3,0)
GPGPU-Sim uArch: core: 11, cta: 2 initialized @(3,0)
GPGPU-Sim uArch: core: 12, cta: 2 initialized @(3,0)
GPGPU-Sim uArch: core: 13, cta: 2 initialized @(3,0)
GPGPU-Sim uArch: core:  0, cta: 2 initialized @(3,0)
GPGPU-Sim uArch: core:  1, cta: 3 initialized @(4,0)
GPGPU-Sim uArch: core:  2, cta: 3 initialized @(4,0)
GPGPU-Sim uArch: core:  3, cta: 3 initialized @(4,0)
GPGPU-Sim uArch: core:  4, cta: 3 initialized @(4,0)
GPGPU-Sim uArch: core:  5, cta: 3 initialized @(4,0)
GPGPU-Sim uArch: core:  6, cta: 3 initialized @(4,0)
GPGPU-Sim uArch: core:  7, cta: 3 initialized @(4,0)
GPGPU-Sim uArch: core:  8, cta: 3 initialized @(4,0)
GPGPU-Sim uArch: core:  9, cta: 3 initialized @(4,0)
GPGPU-Sim uArch: core: 10, cta: 3 initialized @(4,0)
GPGPU-Sim uArch: core: 11, cta: 3 initialized @(4,0)
GPGPU-Sim uArch: core: 12, cta: 3 initialized @(4,0)
GPGPU-Sim uArch: core: 13, cta: 3 initialized @(4,0)
GPGPU-Sim uArch: core:  0, cta: 3 initialized @(4,0)
GPGPU-Sim uArch: core:  1, cta: 4 initialized @(5,0)
GPGPU-Sim uArch: core:  2, cta: 4 initialized @(5,0)
GPGPU-Sim uArch: core:  3, cta: 4 initialized @(5,0)
GPGPU-Sim uArch: core:  4, cta: 4 initialized @(5,0)
GPGPU-Sim uArch: core:  5, cta: 4 initialized @(5,0)
GPGPU-Sim uArch: core:  6, cta: 4 initialized @(5,0)
GPGPU-Sim uArch: core:  7, cta: 4 initialized @(5,0)
GPGPU-Sim uArch: core:  8, cta: 4 initialized @(5,0)
GPGPU-Sim uArch: core:  9, cta: 4 initialized @(5,0)
GPGPU-Sim uArch: core: 10, cta: 4 initialized @(5,0)
GPGPU-Sim uArch: core: 11, cta: 4 initialized @(5,0)
GPGPU-Sim uArch: core: 12, cta: 4 initialized @(5,0)
GPGPU-Sim uArch: core: 13, cta: 4 initialized @(5,0)
GPGPU-Sim uArch: core:  0, cta: 4 initialized @(5,0)
GPGPU-Sim uArch: core:  1, cta: 5 initialized @(6,0)
GPGPU-Sim uArch: core:  2, cta: 5 initialized @(6,0)
GPGPU-Sim uArch: core:  3, cta: 5 initialized @(6,0)
GPGPU-Sim uArch: core:  4, cta: 5 initialized @(6,0)
GPGPU-Sim uArch: core:  5, cta: 5 initialized @(6,0)
GPGPU-Sim uArch: core:  6, cta: 5 initialized @(6,0)
GPGPU-Sim uArch: core:  7, cta: 5 initialized @(6,0)
GPGPU-Sim uArch: core:  8, cta: 5 initialized @(6,0)
GPGPU-Sim uArch: core:  9, cta: 5 initialized @(6,0)
GPGPU-Sim uArch: core: 10, cta: 5 initialized @(6,0)
GPGPU-Sim uArch: core: 11, cta: 5 initialized @(6,0)
GPGPU-Sim uArch: core: 12, cta: 5 initialized @(6,0)
GPGPU-Sim uArch: core: 13, cta: 5 initialized @(6,0)
GPGPU-Sim uArch: core:  0, cta: 5 initialized @(6,0)
GPGPU-Sim uArch: Shader 4 finished CTA #5 (683,0), 5 CTAs running
GPGPU-Sim uArch: core:  4, cta: 5 initialized @(684,0)
GPGPU-Sim uArch: Shader 0 finished CTA #4 (685,0), 5 CTAs running
GPGPU-Sim uArch: core:  0, cta: 4 initialized @(686,0)
GPGPU-Sim uArch: Shader 4 finished CTA #0 (689,0), 5 CTAs running
GPGPU-Sim uArch: core:  4, cta: 0 initialized @(690,0)
GPGPU-Sim uArch: Shader 0 finished CTA #5 (707,0), 5 CTAs running
GPGPU-Sim uArch: Shader 1 finished CTA #5 (707,0), 5 CTAs running
GPGPU-Sim uArch: core:  0, cta: 5 initialized @(708,0)
GPGPU-Sim uArch: core:  1, cta: 5 initialized @(708,0)
GPGPU-Sim uArch: Shader 2 finished CTA #0 (715,0), 5 CTAs running
GPGPU-Sim uArch: core:  2, cta: 0 initialized @(716,0)
GPGPU-Sim uArch: Shader 0 finished CTA #0 (716,0), 5 CTAs running
GPGPU-Sim uArch: core:  0, cta: 0 initialized @(717,0)
GPGPU-Sim uArch: Shader 1 finished CTA #1 (720,0), 5 CTAs running
GPGPU-Sim uArch: core:  1, cta: 1 initialized @(721,0)
GPGPU-Sim uArch: Shader 2 finished CTA #1 (724,0), 5 CTAs running
GPGPU-Sim uArch: core:  2, cta: 1 initialized @(725,0)
GPGPU-Sim uArch: Shader 3 finished CTA #4 (725,0), 5 CTAs running
GPGPU-Sim uArch: core:  3, cta: 4 initialized @(726,0)
GPGPU-Sim uArch: Shader 4 finished CTA #1 (735,0), 5 CTAs running
GPGPU-Sim uArch: core:  4, cta: 1 initialized @(736,0)
GPGPU-Sim uArch: Shader 3 finished CTA #5 (737,0), 5 CTAs running
GPGPU-Sim uArch: core:  3, cta: 5 initialized @(738,0)
GPGPU-Sim uArch: Shader 1 finished CTA #4 (739,0), 5 CTAs running
GPGPU-Sim uArch: core:  1, cta: 4 initialized @(740,0)
GPGPU-Sim uArch: Shader 5 finished CTA #2 (742,0), 5 CTAs running
GPGPU-Sim uArch: core:  5, cta: 2 initialized @(743,0)
GPGPU-Sim uArch: Shader 4 finished CTA #2 (744,0), 5 CTAs running
GPGPU-Sim uArch: core:  4, cta: 2 initialized @(745,0)
GPGPU-Sim uArch: Shader 5 finished CTA #5 (751,0), 5 CTAs running
GPGPU-Sim uArch: core:  5, cta: 5 initialized @(752,0)
GPGPU-Sim uArch: Shader 2 finished CTA #5 (758,0), 5 CTAs running
GPGPU-Sim uArch: core:  2, cta: 5 initialized @(759,0)
GPGPU-Sim uArch: Shader 6 finished CTA #1 (760,0), 5 CTAs running
GPGPU-Sim uArch: core:  6, cta: 1 initialized @(761,0)
GPGPU-Sim uArch: Shader 4 finished CTA #3 (764,0), 5 CTAs running
GPGPU-Sim uArch: Shader 4 finished CTA #4 (764,0), 4 CTAs running
GPGPU-Sim uArch: core:  4, cta: 3 initialized @(765,0)
GPGPU-Sim uArch: core:  4, cta: 4 initialized @(766,0)
GPGPU-Sim uArch: Shader 5 finished CTA #3 (767,0), 5 CTAs running
GPGPU-Sim uArch: core:  5, cta: 3 initialized @(768,0)
GPGPU-Sim uArch: Shader 6 finished CTA #2 (769,0), 5 CTAs running
GPGPU-Sim uArch: core:  6, cta: 2 initialized @(770,0)
GPGPU-Sim uArch: Shader 11 finished CTA #0 (771,0), 5 CTAs running
GPGPU-Sim uArch: core: 11, cta: 0 initialized @(772,0)
GPGPU-Sim uArch: Shader 3 finished CTA #0 (779,0), 5 CTAs running
GPGPU-Sim uArch: core:  3, cta: 0 initialized @(780,0)
GPGPU-Sim uArch: Shader 5 finished CTA #1 (782,0), 5 CTAs running
GPGPU-Sim uArch: core:  5, cta: 1 initialized @(783,0)
GPGPU-Sim uArch: Shader 6 finished CTA #3 (784,0), 5 CTAs running
GPGPU-Sim uArch: core:  6, cta: 3 initialized @(785,0)
GPGPU-Sim uArch: Shader 0 finished CTA #3 (789,0), 5 CTAs running
GPGPU-Sim uArch: core:  0, cta: 3 initialized @(790,0)
GPGPU-Sim uArch: Shader 8 finished CTA #0 (790,0), 5 CTAs running
GPGPU-Sim uArch: Shader 11 finished CTA #1 (790,0), 5 CTAs running
GPGPU-Sim uArch: core:  8, cta: 0 initialized @(791,0)
GPGPU-Sim uArch: core: 11, cta: 1 initialized @(791,0)
GPGPU-Sim uArch: Shader 7 finished CTA #1 (792,0), 5 CTAs running
GPGPU-Sim uArch: core:  7, cta: 1 initialized @(793,0)
GPGPU-Sim uArch: Shader 6 finished CTA #0 (797,0), 5 CTAs running
GPGPU-Sim uArch: core:  6, cta: 0 initialized @(798,0)
GPGPU-Sim uArch: Shader 8 finished CTA #1 (799,0), 5 CTAs running
GPGPU-Sim uArch: core:  8, cta: 1 initialized @(800,0)
GPGPU-Sim uArch: Shader 3 finished CTA #3 (802,0), 5 CTAs running
GPGPU-Sim uArch: Shader 7 finished CTA #2 (802,0), 5 CTAs running
GPGPU-Sim uArch: Shader 9 finished CTA #0 (802,0), 5 CTAs running
GPGPU-Sim uArch: core:  9, cta: 0 initialized @(803,0)
GPGPU-Sim uArch: core:  3, cta: 3 initialized @(803,0)
GPGPU-Sim uArch: core:  7, cta: 2 initialized @(803,0)
GPGPU-Sim uArch: Shader 0 finished CTA #1 (803,0), 5 CTAs running
GPGPU-Sim uArch: core:  0, cta: 1 initialized @(804,0)
GPGPU-Sim uArch: Shader 2 finished CTA #3 (804,0), 5 CTAs running
GPGPU-Sim uArch: core:  2, cta: 3 initialized @(805,0)
GPGPU-Sim uArch: Shader 1 finished CTA #2 (805,0), 5 CTAs running
GPGPU-Sim uArch: Shader 1 finished CTA #3 (805,0), 4 CTAs running
GPGPU-Sim uArch: core:  1, cta: 2 initialized @(806,0)
GPGPU-Sim uArch: core:  1, cta: 3 initialized @(807,0)
GPGPU-Sim uArch: Shader 5 finished CTA #4 (807,0), 5 CTAs running
GPGPU-Sim uArch: core:  5, cta: 4 initialized @(808,0)
GPGPU-Sim uArch: Shader 10 finished CTA #5 (808,0), 5 CTAs running
GPGPU-Sim uArch: core: 10, cta: 5 initialized @(809,0)
GPGPU-Sim uArch: Shader 7 finished CTA #5 (811,0), 5 CTAs running
GPGPU-Sim uArch: core:  7, cta: 5 initialized @(812,0)
GPGPU-Sim uArch: Shader 5 finished CTA #0 (812,0), 5 CTAs running
GPGPU-Sim uArch: core:  5, cta: 0 initialized @(813,0)
GPGPU-Sim uArch: Shader 2 finished CTA #4 (813,0), 5 CTAs running
GPGPU-Sim uArch: core:  2, cta: 4 initialized @(814,0)
GPGPU-Sim uArch: Shader 0 finished CTA #2 (814,0), 5 CTAs running
GPGPU-Sim uArch: core:  0, cta: 2 initialized @(815,0)
GPGPU-Sim uArch: Shader 10 finished CTA #0 (817,0), 5 CTAs running
GPGPU-Sim uArch: core: 10, cta: 0 initialized @(818,0)
GPGPU-Sim uArch: Shader 11 finished CTA #5 (818,0), 5 CTAs running
GPGPU-Sim uArch: core: 11, cta: 5 initialized @(819,0)
GPGPU-Sim uArch: Shader 2 finished CTA #2 (820,0), 5 CTAs running
GPGPU-Sim uArch: Shader 6 finished CTA #4 (820,0), 5 CTAs running
GPGPU-Sim uArch: Shader 6 finished CTA #5 (820,0), 4 CTAs running
GPGPU-Sim uArch: Shader 13 finished CTA #5 (820,0), 5 CTAs running
GPGPU-Sim uArch: core: 13, cta: 5 initialized @(821,0)
GPGPU-Sim uArch: core:  2, cta: 2 initialized @(821,0)
GPGPU-Sim uArch: core:  6, cta: 4 initialized @(821,0)
GPGPU-Sim uArch: Shader 8 finished CTA #2 (821,0), 5 CTAs running
GPGPU-Sim uArch: core:  8, cta: 2 initialized @(822,0)
GPGPU-Sim uArch: core:  6, cta: 5 initialized @(822,0)
GPGPU-Sim uArch: Shader 10 finished CTA #1 (826,0), 5 CTAs running
GPGPU-Sim uArch: core: 10, cta: 1 initialized @(827,0)
GPGPU-Sim uArch: Shader 13 finished CTA #4 (828,0), 5 CTAs running
GPGPU-Sim uArch: core: 13, cta: 4 initialized @(829,0)
GPGPU-Sim uArch: Shader 9 finished CTA #1 (831,0), 5 CTAs running
GPGPU-Sim uArch: core:  9, cta: 1 initialized @(832,0)
GPGPU-Sim uArch: Shader 12 finished CTA #4 (833,0), 5 CTAs running
GPGPU-Sim uArch: core: 12, cta: 4 initialized @(834,0)
GPGPU-Sim uArch: Shader 3 finished CTA #1 (835,0), 5 CTAs running
GPGPU-Sim uArch: Shader 3 finished CTA #2 (835,0), 4 CTAs running
GPGPU-Sim uArch: core:  3, cta: 1 initialized @(836,0)
GPGPU-Sim uArch: core:  3, cta: 2 initialized @(837,0)
GPGPU-Sim uArch: Shader 12 finished CTA #5 (839,0), 5 CTAs running
GPGPU-Sim uArch: core: 12, cta: 5 initialized @(840,0)
GPGPU-Sim uArch: Shader 7 finished CTA #0 (840,0), 5 CTAs running
GPGPU-Sim uArch: core:  7, cta: 0 initialized @(841,0)
GPGPU-Sim uArch: Shader 9 finished CTA #4 (841,0), 5 CTAs running
GPGPU-Sim uArch: core:  9, cta: 4 initialized @(842,0)
GPGPU-Sim uArch: Shader 12 finished CTA #0 (850,0), 5 CTAs running
GPGPU-Sim uArch: core: 12, cta: 0 initialized @(851,0)
GPGPU-Sim uArch: Shader 11 finished CTA #2 (853,0), 5 CTAs running
GPGPU-Sim uArch: core: 11, cta: 2 initialized @(854,0)
GPGPU-Sim uArch: Shader 7 finished CTA #3 (854,0), 5 CTAs running
GPGPU-Sim uArch: Shader 7 finished CTA #4 (854,0), 4 CTAs running
GPGPU-Sim uArch: core:  7, cta: 3 initialized @(855,0)
GPGPU-Sim uArch: core:  7, cta: 4 initialized @(856,0)
GPGPU-Sim uArch: Shader 8 finished CTA #4 (862,0), 5 CTAs running
GPGPU-Sim uArch: Shader 8 finished CTA #5 (862,0), 4 CTAs running
GPGPU-Sim uArch: core:  8, cta: 4 initialized @(863,0)
GPGPU-Sim uArch: core:  8, cta: 5 initialized @(864,0)
GPGPU-Sim uArch: Shader 10 finished CTA #3 (869,0), 5 CTAs running
GPGPU-Sim uArch: core: 10, cta: 3 initialized @(870,0)
GPGPU-Sim uArch: Shader 13 finished CTA #1 (870,0), 5 CTAs running
GPGPU-Sim uArch: core: 13, cta: 1 initialized @(871,0)
GPGPU-Sim uArch: Shader 9 finished CTA #3 (882,0), 5 CTAs running
GPGPU-Sim uArch: Shader 10 finished CTA #2 (882,0), 5 CTAs running
GPGPU-Sim uArch: core:  9, cta: 3 initialized @(883,0)
GPGPU-Sim uArch: core: 10, cta: 2 initialized @(883,0)
GPGPU-Sim uArch: Shader 9 finished CTA #5 (886,0), 5 CTAs running
GPGPU-Sim uArch: core:  9, cta: 5 initialized @(887,0)
GPGPU-Sim uArch: Shader 11 finished CTA #3 (887,0), 5 CTAs running
GPGPU-Sim uArch: Shader 11 finished CTA #4 (887,0), 4 CTAs running
GPGPU-Sim uArch: core: 11, cta: 3 initialized @(888,0)
GPGPU-Sim uArch: core: 11, cta: 4 initialized @(889,0)
GPGPU-Sim uArch: Shader 13 finished CTA #0 (889,0), 5 CTAs running
GPGPU-Sim uArch: core: 13, cta: 0 initialized @(890,0)
GPGPU-Sim uArch: Shader 8 finished CTA #3 (895,0), 5 CTAs running
GPGPU-Sim uArch: core:  8, cta: 3 initialized @(896,0)
GPGPU-Sim uArch: Shader 9 finished CTA #2 (896,0), 5 CTAs running
GPGPU-Sim uArch: core:  9, cta: 2 initialized @(897,0)
GPGPU-Sim uArch: Shader 10 finished CTA #4 (897,0), 5 CTAs running
GPGPU-Sim uArch: core: 10, cta: 4 initialized @(898,0)
GPGPU-Sim uArch: Shader 12 finished CTA #1 (902,0), 5 CTAs running
GPGPU-Sim uArch: Shader 12 finished CTA #2 (902,0), 4 CTAs running
GPGPU-Sim uArch: Shader 12 finished CTA #3 (902,0), 3 CTAs running
GPGPU-Sim uArch: Shader 13 finished CTA #2 (902,0), 5 CTAs running
GPGPU-Sim uArch: core: 12, cta: 1 initialized @(903,0)
GPGPU-Sim uArch: core: 13, cta: 2 initialized @(903,0)
GPGPU-Sim uArch: core: 12, cta: 2 initialized @(904,0)
GPGPU-Sim uArch: core: 12, cta: 3 initialized @(905,0)
GPGPU-Sim uArch: Shader 13 finished CTA #3 (923,0), 5 CTAs running
GPGPU-Sim uArch: core: 13, cta: 3 initialized @(924,0)
GPGPU-Sim uArch: Shader 0 finished CTA #4 (1028,0), 5 CTAs running
GPGPU-Sim uArch: core:  0, cta: 4 initialized @(1029,0)
GPGPU-Sim uArch: Shader 4 finished CTA #5 (1047,0), 5 CTAs running
GPGPU-Sim uArch: core:  4, cta: 5 initialized @(1048,0)
GPGPU-Sim uArch: Shader 2 finished CTA #0 (1053,0), 5 CTAs running
GPGPU-Sim uArch: core:  2, cta: 0 initialized @(1054,0)
GPGPU-Sim uArch: Shader 1 finished CTA #5 (1057,0), 5 CTAs running
GPGPU-Sim uArch: core:  1, cta: 5 initialized @(1058,0)
GPGPU-Sim uArch: Shader 4 finished CTA #0 (1059,0), 5 CTAs running
GPGPU-Sim uArch: core:  4, cta: 0 initialized @(1060,0)
GPGPU-Sim uArch: Shader 3 finished CTA #4 (1068,0), 5 CTAs running
GPGPU-Sim uArch: core:  3, cta: 4 initialized @(1069,0)
GPGPU-Sim uArch: Shader 1 finished CTA #1 (1078,0), 5 CTAs running
GPGPU-Sim uArch: core:  1, cta: 1 initialized @(1079,0)
GPGPU-Sim uArch: Shader 0 finished CTA #5 (1080,0), 5 CTAs running
GPGPU-Sim uArch: core:  0, cta: 5 initialized @(1081,0)
GPGPU-Sim uArch: Shader 0 finished CTA #0 (1089,0), 5 CTAs running
GPGPU-Sim uArch: core:  0, cta: 0 initialized @(1090,0)
GPGPU-Sim uArch: Shader 2 finished CTA #1 (1091,0), 5 CTAs running
GPGPU-Sim uArch: core:  2, cta: 1 initialized @(1092,0)
GPGPU-Sim uArch: Shader 3 finished CTA #5 (1093,0), 5 CTAs running
GPGPU-Sim uArch: core:  3, cta: 5 initialized @(1094,0)
GPGPU-Sim uArch: Shader 5 finished CTA #2 (1098,0), 5 CTAs running
GPGPU-Sim uArch: core:  5, cta: 2 initialized @(1099,0)
GPGPU-Sim uArch: Shader 1 finished CTA #4 (1108,0), 5 CTAs running
GPGPU-Sim uArch: core:  1, cta: 4 initialized @(1109,0)
GPGPU-Sim uArch: Shader 4 finished CTA #1 (1113,0), 5 CTAs running
GPGPU-Sim uArch: core:  4, cta: 1 initialized @(1114,0)
GPGPU-Sim uArch: Shader 11 finished CTA #0 (1114,0), 5 CTAs running
GPGPU-Sim uArch: core: 11, cta: 0 initialized @(1115,0)
GPGPU-Sim uArch: Shader 6 finished CTA #1 (1118,0), 5 CTAs running
GPGPU-Sim uArch: core:  6, cta: 1 initialized @(1119,0)
GPGPU-Sim uArch: Shader 5 finished CTA #5 (1125,0), 5 CTAs running
GPGPU-Sim uArch: core:  5, cta: 5 initialized @(1126,0)
GPGPU-Sim uArch: Shader 2 finished CTA #5 (1128,0), 5 CTAs running
GPGPU-Sim uArch: core:  2, cta: 5 initialized @(1129,0)
GPGPU-Sim uArch: Shader 3 finished CTA #0 (1139,0), 5 CTAs running
GPGPU-Sim uArch: core:  3, cta: 0 initialized @(1140,0)
GPGPU-Sim uArch: Shader 11 finished CTA #1 (1143,0), 5 CTAs running
GPGPU-Sim uArch: core: 11, cta: 1 initialized @(1144,0)
GPGPU-Sim uArch: Shader 1 finished CTA #2 (1155,0), 5 CTAs running
GPGPU-Sim uArch: core:  1, cta: 2 initialized @(1156,0)
GPGPU-Sim uArch: Shader 7 finished CTA #1 (1156,0), 5 CTAs running
GPGPU-Sim uArch: core:  7, cta: 1 initialized @(1157,0)
GPGPU-Sim uArch: Shader 5 finished CTA #3 (1158,0), 5 CTAs running
GPGPU-Sim uArch: core:  5, cta: 3 initialized @(1159,0)
GPGPU-Sim uArch: Shader 0 finished CTA #3 (1160,0), 5 CTAs running
GPGPU-Sim uArch: core:  0, cta: 3 initialized @(1161,0)
GPGPU-Sim uArch: Shader 9 finished CTA #0 (1161,0), 5 CTAs running
GPGPU-Sim uArch: core:  9, cta: 0 initialized @(1162,0)
GPGPU-Sim uArch: Shader 2 finished CTA #3 (1162,0), 5 CTAs running
GPGPU-Sim uArch: core:  2, cta: 3 initialized @(1163,0)
GPGPU-Sim uArch: Shader 4 finished CTA #2 (1174,0), 5 CTAs running
GPGPU-Sim uArch: core:  4, cta: 2 initialized @(1175,0)
GPGPU-Sim uArch: Shader 0 finished CTA #1 (1175,0), 5 CTAs running
GPGPU-Sim uArch: Shader 3 finished CTA #3 (1175,0), 5 CTAs running
GPGPU-Sim uArch: Shader 7 finished CTA #2 (1175,0), 5 CTAs running
GPGPU-Sim uArch: core:  7, cta: 2 initialized @(1176,0)
GPGPU-Sim uArch: core:  0, cta: 1 initialized @(1176,0)
GPGPU-Sim uArch: core:  3, cta: 3 initialized @(1176,0)
GPGPU-Sim uArch: Shader 8 finished CTA #0 (1176,0), 5 CTAs running
GPGPU-Sim uArch: core:  8, cta: 0 initialized @(1177,0)
GPGPU-Sim uArch: Shader 6 finished CTA #2 (1178,0), 5 CTAs running
GPGPU-Sim uArch: core:  6, cta: 2 initialized @(1179,0)
GPGPU-Sim uArch: Shader 1 finished CTA #3 (1180,0), 5 CTAs running
GPGPU-Sim uArch: core:  1, cta: 3 initialized @(1181,0)
GPGPU-Sim uArch: Shader 10 finished CTA #5 (1182,0), 5 CTAs running
GPGPU-Sim uArch: core: 10, cta: 5 initialized @(1183,0)
GPGPU-Sim uArch: Shader 4 finished CTA #3 (1185,0), 5 CTAs running
GPGPU-Sim uArch: Shader 4 finished CTA #4 (1185,0), 4 CTAs running
GPGPU-Sim uArch: core:  4, cta: 3 initialized @(1186,0)
GPGPU-Sim uArch: Shader 0 finished CTA #2 (1186,0), 5 CTAs running
GPGPU-Sim uArch: core:  0, cta: 2 initialized @(1187,0)
GPGPU-Sim uArch: core:  4, cta: 4 initialized @(1187,0)
GPGPU-Sim uArch: Shader 5 finished CTA #1 (1187,0), 5 CTAs running
GPGPU-Sim uArch: Shader 6 finished CTA #3 (1187,0), 5 CTAs running
GPGPU-Sim uArch: Shader 8 finished CTA #1 (1187,0), 5 CTAs running
GPGPU-Sim uArch: Shader 13 finished CTA #5 (1187,0), 5 CTAs running
GPGPU-Sim uArch: core:  5, cta: 1 initialized @(1188,0)
GPGPU-Sim uArch: core:  6, cta: 3 initialized @(1188,0)
GPGPU-Sim uArch: core:  8, cta: 1 initialized @(1188,0)
GPGPU-Sim uArch: core: 13, cta: 5 initialized @(1188,0)
GPGPU-Sim uArch: Shader 11 finished CTA #5 (1197,0), 5 CTAs running
GPGPU-Sim uArch: core: 11, cta: 5 initialized @(1198,0)
GPGPU-Sim uArch: Shader 10 finished CTA #0 (1201,0), 5 CTAs running
GPGPU-Sim uArch: core: 10, cta: 0 initialized @(1202,0)
GPGPU-Sim uArch: Shader 2 finished CTA #4 (1208,0), 5 CTAs running
GPGPU-Sim uArch: Shader 7 finished CTA #5 (1208,0), 5 CTAs running
GPGPU-Sim uArch: core:  2, cta: 4 initialized @(1209,0)
GPGPU-Sim uArch: core:  7, cta: 5 initialized @(1209,0)
GPGPU-Sim uArch: Shader 3 finished CTA #1 (1211,0), 5 CTAs running
GPGPU-Sim uArch: Shader 12 finished CTA #4 (1211,0), 5 CTAs running
GPGPU-Sim uArch: core: 12, cta: 4 initialized @(1212,0)
GPGPU-Sim uArch: core:  3, cta: 1 initialized @(1212,0)
GPGPU-Sim uArch: Shader 6 finished CTA #0 (1212,0), 5 CTAs running
GPGPU-Sim uArch: core:  6, cta: 0 initialized @(1213,0)
GPGPU-Sim uArch: Shader 13 finished CTA #4 (1213,0), 5 CTAs running
GPGPU-Sim uArch: core: 13, cta: 4 initialized @(1214,0)
GPGPU-Sim uArch: Shader 2 finished CTA #2 (1217,0), 5 CTAs running
GPGPU-Sim uArch: Shader 5 finished CTA #4 (1217,0), 5 CTAs running
GPGPU-Sim uArch: core:  2, cta: 2 initialized @(1218,0)
GPGPU-Sim uArch: core:  5, cta: 4 initialized @(1218,0)
GPGPU-Sim uArch: Shader 8 finished CTA #2 (1226,0), 5 CTAs running
GPGPU-Sim uArch: Shader 11 finished CTA #2 (1226,0), 5 CTAs running
GPGPU-Sim uArch: core:  8, cta: 2 initialized @(1227,0)
GPGPU-Sim uArch: core: 11, cta: 2 initialized @(1227,0)
GPGPU-Sim uArch: Shader 12 finished CTA #5 (1228,0), 5 CTAs running
GPGPU-Sim uArch: core: 12, cta: 5 initialized @(1229,0)
GPGPU-Sim uArch: Shader 10 finished CTA #1 (1231,0), 5 CTAs running
GPGPU-Sim uArch: core: 10, cta: 1 initialized @(1232,0)
GPGPU-Sim uArch: Shader 5 finished CTA #0 (1233,0), 5 CTAs running
GPGPU-Sim uArch: core:  5, cta: 0 initialized @(1234,0)
GPGPU-Sim uArch: Shader 9 finished CTA #4 (1234,0), 5 CTAs running
GPGPU-Sim uArch: core:  9, cta: 4 initialized @(1235,0)
GPGPU-Sim uArch: Shader 8 finished CTA #4 (1235,0), 5 CTAs running
GPGPU-Sim uArch: core:  8, cta: 4 initialized @(1236,0)
GPGPU-Sim uArch: Shader 3 finished CTA #2 (1236,0), 5 CTAs running
GPGPU-Sim uArch: core:  3, cta: 2 initialized @(1237,0)
GPGPU-Sim uArch: Shader 12 finished CTA #0 (1240,0), 5 CTAs running
GPGPU-Sim uArch: core: 12, cta: 0 initialized @(1241,0)
GPGPU-Sim uArch: Shader 9 finished CTA #1 (1243,0), 5 CTAs running
GPGPU-Sim uArch: core:  9, cta: 1 initialized @(1244,0)
GPGPU-Sim uArch: Shader 6 finished CTA #4 (1245,0), 5 CTAs running
GPGPU-Sim uArch: core:  6, cta: 4 initialized @(1246,0)
GPGPU-Sim uArch: Shader 6 finished CTA #5 (1258,0), 5 CTAs running
GPGPU-Sim uArch: core:  6, cta: 5 initialized @(1259,0)
GPGPU-Sim uArch: Shader 11 finished CTA #3 (1262,0), 5 CTAs running
GPGPU-Sim uArch: core: 11, cta: 3 initialized @(1263,0)
GPGPU-Sim uArch: Shader 7 finished CTA #0 (1264,0), 5 CTAs running
GPGPU-Sim uArch: core:  7, cta: 0 initialized @(1265,0)
GPGPU-Sim uArch: Shader 13 finished CTA #1 (1265,0), 5 CTAs running
GPGPU-Sim uArch: core: 13, cta: 1 initialized @(1266,0)
GPGPU-Sim uArch: Shader 7 finished CTA #3 (1278,0), 5 CTAs running
GPGPU-Sim uArch: Shader 7 finished CTA #4 (1278,0), 4 CTAs running
GPGPU-Sim uArch: Shader 13 finished CTA #0 (1278,0), 5 CTAs running
GPGPU-Sim uArch: core:  7, cta: 3 initialized @(1279,0)
GPGPU-Sim uArch: core: 13, cta: 0 initialized @(1279,0)
GPGPU-Sim uArch: Shader 10 finished CTA #3 (1279,0), 5 CTAs running
GPGPU-Sim uArch: core:  7, cta: 4 initialized @(1280,0)
GPGPU-Sim uArch: core: 10, cta: 3 initialized @(1280,0)
GPGPU-Sim uArch: Shader 11 finished CTA #4 (1281,0), 5 CTAs running
GPGPU-Sim uArch: core: 11, cta: 4 initialized @(1282,0)
GPGPU-Sim uArch: Shader 8 finished CTA #3 (1296,0), 5 CTAs running
GPGPU-Sim uArch: Shader 10 finished CTA #2 (1296,0), 5 CTAs running
GPGPU-Sim uArch: core:  8, cta: 3 initialized @(1297,0)
GPGPU-Sim uArch: core: 10, cta: 2 initialized @(1297,0)
GPGPU-Sim uArch: Shader 13 finished CTA #2 (1298,0), 5 CTAs running
GPGPU-Sim uArch: core: 13, cta: 2 initialized @(1299,0)
GPGPU-Sim uArch: Shader 9 finished CTA #3 (1302,0), 5 CTAs running
GPGPU-Sim uArch: core:  9, cta: 3 initialized @(1303,0)
GPGPU-Sim uArch: Shader 12 finished CTA #1 (1305,0), 5 CTAs running
GPGPU-Sim uArch: core: 12, cta: 1 initialized @(1306,0)
GPGPU-Sim uArch: Shader 8 finished CTA #5 (1307,0), 5 CTAs running
GPGPU-Sim uArch: core:  8, cta: 5 initialized @(1308,0)
GPGPU-Sim uArch: Shader 10 finished CTA #4 (1310,0), 5 CTAs running
GPGPU-Sim uArch: core: 10, cta: 4 initialized @(1311,0)
GPGPU-Sim uArch: Shader 9 finished CTA #5 (1316,0), 5 CTAs running
GPGPU-Sim uArch: core:  9, cta: 5 initialized @(1317,0)
GPGPU-Sim uArch: Shader 9 finished CTA #2 (1320,0), 5 CTAs running
GPGPU-Sim uArch: core:  9, cta: 2 initialized @(1321,0)
GPGPU-Sim uArch: Shader 12 finished CTA #2 (1325,0), 5 CTAs running
GPGPU-Sim uArch: core: 12, cta: 2 initialized @(1326,0)
GPGPU-Sim uArch: Shader 12 finished CTA #3 (1334,0), 5 CTAs running
GPGPU-Sim uArch: core: 12, cta: 3 initialized @(1335,0)
GPGPU-Sim uArch: Shader 13 finished CTA #3 (1335,0), 5 CTAs running
GPGPU-Sim uArch: core: 13, cta: 3 initialized @(1336,0)
GPGPU-Sim uArch: Shader 0 finished CTA #4 (1359,0), 5 CTAs running
GPGPU-Sim uArch: core:  0, cta: 4 initialized @(1360,0)
GPGPU-Sim uArch: Shader 4 finished CTA #5 (1381,0), 5 CTAs running
GPGPU-Sim uArch: core:  4, cta: 5 initialized @(1382,0)
GPGPU-Sim uArch: Shader 2 finished CTA #0 (1383,0), 5 CTAs running
GPGPU-Sim uArch: core:  2, cta: 0 initialized @(1384,0)
GPGPU-Sim uArch: Shader 1 finished CTA #5 (1400,0), 5 CTAs running
GPGPU-Sim uArch: core:  1, cta: 5 initialized @(1401,0)
GPGPU-Sim uArch: Shader 3 finished CTA #4 (1405,0), 5 CTAs running
GPGPU-Sim uArch: Shader 4 finished CTA #0 (1405,0), 5 CTAs running
GPGPU-Sim uArch: core:  3, cta: 4 initialized @(1406,0)
GPGPU-Sim uArch: core:  4, cta: 0 initialized @(1406,0)
GPGPU-Sim uArch: Shader 0 finished CTA #5 (1416,0), 5 CTAs running
GPGPU-Sim uArch: Shader 1 finished CTA #1 (1428,0), 5 CTAs running
GPGPU-Sim uArch: Shader 3 finished CTA #5 (1432,0), 5 CTAs running
GPGPU-Sim uArch: Shader 2 finished CTA #1 (1435,0), 5 CTAs running
GPGPU-Sim uArch: Shader 5 finished CTA #2 (1437,0), 5 CTAs running
GPGPU-Sim uArch: Shader 0 finished CTA #0 (1447,0), 4 CTAs running
GPGPU-Sim uArch: Shader 6 finished CTA #1 (1447,0), 5 CTAs running
GPGPU-Sim uArch: Shader 11 finished CTA #0 (1451,0), 5 CTAs running
GPGPU-Sim uArch: Shader 1 finished CTA #4 (1458,0), 4 CTAs running
GPGPU-Sim uArch: Shader 2 finished CTA #5 (1459,0), 4 CTAs running
GPGPU-Sim uArch: Shader 4 finished CTA #1 (1461,0), 5 CTAs running
GPGPU-Sim uArch: Shader 5 finished CTA #5 (1473,0), 4 CTAs running
GPGPU-Sim uArch: Shader 3 finished CTA #0 (1476,0), 4 CTAs running
GPGPU-Sim uArch: Shader 11 finished CTA #1 (1476,0), 4 CTAs running
GPGPU-Sim uArch: Shader 9 finished CTA #0 (1489,0), 5 CTAs running
GPGPU-Sim uArch: Shader 1 finished CTA #2 (1492,0), 3 CTAs running
GPGPU-Sim uArch: Shader 7 finished CTA #1 (1496,0), 5 CTAs running
GPGPU-Sim uArch: Shader 2 finished CTA #3 (1506,0), 3 CTAs running
GPGPU-Sim uArch: Shader 0 finished CTA #3 (1510,0), 3 CTAs running
GPGPU-Sim uArch: Shader 1 finished CTA #3 (1516,0), 2 CTAs running
GPGPU-Sim uArch: Shader 3 finished CTA #3 (1520,0), 3 CTAs running
GPGPU-Sim uArch: Shader 5 finished CTA #3 (1521,0), 3 CTAs running
GPGPU-Sim uArch: Shader 7 finished CTA #2 (1526,0), 4 CTAs running
GPGPU-Sim uArch: Shader 10 finished CTA #5 (1529,0), 5 CTAs running
GPGPU-Sim uArch: Shader 4 finished CTA #2 (1530,0), 4 CTAs running
GPGPU-Sim uArch: Shader 13 finished CTA #5 (1531,0), 5 CTAs running
GPGPU-Sim uArch: Shader 8 finished CTA #0 (1533,0), 5 CTAs running
GPGPU-Sim uArch: Shader 5 finished CTA #1 (1535,0), 2 CTAs running
GPGPU-Sim uArch: Shader 0 finished CTA #2 (1541,0), 2 CTAs running
GPGPU-Sim uArch: Shader 6 finished CTA #2 (1543,0), 4 CTAs running
GPGPU-Sim uArch: Shader 11 finished CTA #5 (1544,0), 3 CTAs running
GPGPU-Sim uArch: Shader 4 finished CTA #3 (1548,0), 3 CTAs running
GPGPU-Sim uArch: Shader 0 finished CTA #1 (1553,0), 1 CTAs running
GPGPU-Sim uArch: Shader 4 finished CTA #4 (1553,0), 2 CTAs running
GPGPU-Sim uArch: Shader 6 finished CTA #3 (1554,0), 3 CTAs running
GPGPU-Sim uArch: Shader 12 finished CTA #4 (1557,0), 5 CTAs running
GPGPU-Sim uArch: Shader 3 finished CTA #1 (1559,0), 2 CTAs running
GPGPU-Sim uArch: Shader 2 finished CTA #4 (1561,0), 2 CTAs running
GPGPU-Sim uArch: Shader 10 finished CTA #0 (1562,0), 4 CTAs running
GPGPU-Sim uArch: Shader 8 finished CTA #1 (1563,0), 4 CTAs running
GPGPU-Sim uArch: Shader 7 finished CTA #5 (1565,0), 3 CTAs running
GPGPU-Sim uArch: Shader 13 finished CTA #4 (1565,0), 4 CTAs running
GPGPU-Sim uArch: Shader 2 finished CTA #2 (1567,0), 1 CTAs running
GPGPU-Sim uArch: Shader 5 finished CTA #4 (1571,0), 1 CTAs running
GPGPU-Sim uArch: Shader 3 finished CTA #2 (1573,0), 1 CTAs running
GPGPU-Sim uArch: Shader 11 finished CTA #2 (1581,0), 2 CTAs running
GPGPU-Sim uArch: Shader 12 finished CTA #5 (1586,0), 4 CTAs running
GPGPU-Sim uArch: Shader 6 finished CTA #0 (1587,0), 2 CTAs running
GPGPU-Sim uArch: Shader 10 finished CTA #1 (1589,0), 3 CTAs running
GPGPU-Sim uArch: Shader 8 finished CTA #2 (1591,0), 3 CTAs running
GPGPU-Sim uArch: Shader 9 finished CTA #4 (1593,0), 4 CTAs running
GPGPU-Sim uArch: Shader 12 finished CTA #0 (1600,0), 3 CTAs running
GPGPU-Sim uArch: Shader 9 finished CTA #1 (1604,0), 3 CTAs running
GPGPU-Sim uArch: Shader 11 finished CTA #3 (1604,0), 1 CTAs running
GPGPU-Sim uArch: Shader 6 finished CTA #4 (1606,0), 1 CTAs running
GPGPU-Sim uArch: Shader 5 finished CTA #0 (1608,0), 0 CTAs running
GPGPU-Sim uArch: Shader 5 empty (release kernel 1 '_Z6KernelP4NodePiPbS2_S1_S2_i').
GPGPU-Sim uArch: Shader 8 finished CTA #4 (1610,0), 2 CTAs running
GPGPU-Sim uArch: Shader 7 finished CTA #0 (1612,0), 2 CTAs running
GPGPU-Sim uArch: Shader 13 finished CTA #1 (1620,0), 3 CTAs running
GPGPU-Sim uArch: Shader 10 finished CTA #3 (1625,0), 2 CTAs running
GPGPU-Sim uArch: Shader 6 finished CTA #5 (1628,0), 0 CTAs running
GPGPU-Sim uArch: Shader 6 empty (release kernel 1 '_Z6KernelP4NodePiPbS2_S1_S2_i').
GPGPU-Sim uArch: Shader 11 finished CTA #4 (1628,0), 0 CTAs running
GPGPU-Sim uArch: Shader 11 empty (release kernel 1 '_Z6KernelP4NodePiPbS2_S1_S2_i').
GPGPU-Sim uArch: Shader 13 finished CTA #0 (1637,0), 2 CTAs running
GPGPU-Sim uArch: Shader 10 finished CTA #2 (1643,0), 1 CTAs running
GPGPU-Sim uArch: Shader 9 finished CTA #3 (1647,0), 2 CTAs running
GPGPU-Sim uArch: Shader 7 finished CTA #3 (1655,0), 1 CTAs running
GPGPU-Sim uArch: Shader 8 finished CTA #3 (1656,0), 1 CTAs running
GPGPU-Sim uArch: Shader 13 finished CTA #2 (1656,0), 1 CTAs running
GPGPU-Sim uArch: Shader 7 finished CTA #4 (1660,0), 0 CTAs running
GPGPU-Sim uArch: Shader 7 empty (release kernel 1 '_Z6KernelP4NodePiPbS2_S1_S2_i').
GPGPU-Sim uArch: Shader 8 finished CTA #5 (1666,0), 0 CTAs running
GPGPU-Sim uArch: Shader 8 empty (release kernel 1 '_Z6KernelP4NodePiPbS2_S1_S2_i').
GPGPU-Sim uArch: Shader 12 finished CTA #1 (1666,0), 2 CTAs running
GPGPU-Sim uArch: Shader 10 finished CTA #4 (1675,0), 0 CTAs running
GPGPU-Sim uArch: Shader 10 empty (release kernel 1 '_Z6KernelP4NodePiPbS2_S1_S2_i').
GPGPU-Sim uArch: Shader 12 finished CTA #2 (1677,0), 1 CTAs running
GPGPU-Sim uArch: Shader 13 finished CTA #3 (1683,0), 0 CTAs running
GPGPU-Sim uArch: Shader 13 empty (release kernel 1 '_Z6KernelP4NodePiPbS2_S1_S2_i').
GPGPU-Sim uArch: Shader 9 finished CTA #5 (1685,0), 1 CTAs running
GPGPU-Sim uArch: Shader 0 finished CTA #4 (1688,0), 0 CTAs running
GPGPU-Sim uArch: Shader 0 empty (release kernel 1 '_Z6KernelP4NodePiPbS2_S1_S2_i').
GPGPU-Sim uArch: Shader 9 finished CTA #2 (1690,0), 0 CTAs running
GPGPU-Sim uArch: Shader 9 empty (release kernel 1 '_Z6KernelP4NodePiPbS2_S1_S2_i').
GPGPU-Sim uArch: Shader 12 finished CTA #3 (1701,0), 0 CTAs running
GPGPU-Sim uArch: Shader 12 empty (release kernel 1 '_Z6KernelP4NodePiPbS2_S1_S2_i').
GPGPU-Sim uArch: Shader 2 finished CTA #0 (1714,0), 0 CTAs running
GPGPU-Sim uArch: Shader 2 empty (release kernel 1 '_Z6KernelP4NodePiPbS2_S1_S2_i').
GPGPU-Sim uArch: Shader 4 finished CTA #5 (1714,0), 1 CTAs running
GPGPU-Sim uArch: Shader 1 finished CTA #5 (1735,0), 1 CTAs running
GPGPU-Sim uArch: Shader 3 finished CTA #4 (1735,0), 0 CTAs running
GPGPU-Sim uArch: Shader 3 empty (release kernel 1 '_Z6KernelP4NodePiPbS2_S1_S2_i').
GPGPU-Sim uArch: Shader 4 finished CTA #0 (1742,0), 0 CTAs running
GPGPU-Sim uArch: Shader 4 empty (release kernel 1 '_Z6KernelP4NodePiPbS2_S1_S2_i').
GPGPU-Sim uArch: Shader 1 finished CTA #0 (5416,0), 0 CTAs running
GPGPU-Sim uArch: Shader 1 empty (release kernel 1 '_Z6KernelP4NodePiPbS2_S1_S2_i').
GPGPU-Sim uArch: GPU detected kernel '_Z6KernelP4NodePiPbS2_S1_S2_i' finished on shader 1.
kernel_name = _Z6KernelP4NodePiPbS2_S1_S2_i 
kernel_launch_uid = 1 
gpu_sim_cycle = 5417
gpu_sim_insn = 458974
gpu_ipc =      84.7284
gpu_tot_sim_cycle = 5417
gpu_tot_sim_insn = 458974
gpu_tot_ipc =      84.7284
gpu_tot_issued_cta = 0
gpu_stall_dramfull = 111
gpu_stall_icnt2sh    = 854
gpu_total_sim_rate=458974

========= Core cache stats =========
L1I_cache:
	L1I_total_cache_accesses = 8764
	L1I_total_cache_misses = 451
	L1I_total_cache_miss_rate = 0.0515
	L1I_total_cache_pending_hits = 0
	L1I_total_cache_reservation_fails = 3822
L1D_cache:
	L1D_cache_core[0]: Access = 152, Miss = 38, Miss_rate = 0.250, Pending_hits = 114, Reservation_fails = 0
	L1D_cache_core[1]: Access = 204, Miss = 70, Miss_rate = 0.343, Pending_hits = 103, Reservation_fails = 0
	L1D_cache_core[2]: Access = 152, Miss = 38, Miss_rate = 0.250, Pending_hits = 114, Reservation_fails = 0
	L1D_cache_core[3]: Access = 152, Miss = 38, Miss_rate = 0.250, Pending_hits = 114, Reservation_fails = 0
	L1D_cache_core[4]: Access = 160, Miss = 40, Miss_rate = 0.250, Pending_hits = 120, Reservation_fails = 0
	L1D_cache_core[5]: Access = 144, Miss = 36, Miss_rate = 0.250, Pending_hits = 108, Reservation_fails = 0
	L1D_cache_core[6]: Access = 144, Miss = 36, Miss_rate = 0.250, Pending_hits = 108, Reservation_fails = 0
	L1D_cache_core[7]: Access = 144, Miss = 36, Miss_rate = 0.250, Pending_hits = 108, Reservation_fails = 0
	L1D_cache_core[8]: Access = 144, Miss = 36, Miss_rate = 0.250, Pending_hits = 108, Reservation_fails = 0
	L1D_cache_core[9]: Access = 144, Miss = 36, Miss_rate = 0.250, Pending_hits = 108, Reservation_fails = 0
	L1D_cache_core[10]: Access = 144, Miss = 36, Miss_rate = 0.250, Pending_hits = 108, Reservation_fails = 0
	L1D_cache_core[11]: Access = 144, Miss = 36, Miss_rate = 0.250, Pending_hits = 108, Reservation_fails = 0
	L1D_cache_core[12]: Access = 144, Miss = 36, Miss_rate = 0.250, Pending_hits = 108, Reservation_fails = 0
	L1D_cache_core[13]: Access = 144, Miss = 36, Miss_rate = 0.250, Pending_hits = 108, Reservation_fails = 0
	L1D_total_cache_accesses = 2116
	L1D_total_cache_misses = 548
	L1D_total_cache_miss_rate = 0.2590
	L1D_total_cache_pending_hits = 1537
	L1D_total_cache_reservation_fails = 0
	L1D_cache_data_port_util = 0.001
	L1D_cache_fill_port_util = 0.019
L1C_cache:
	L1C_total_cache_accesses = 0
	L1C_total_cache_misses = 0
	L1C_total_cache_pending_hits = 0
	L1C_total_cache_reservation_fails = 0
L1T_cache:
	L1T_total_cache_accesses = 0
	L1T_total_cache_misses = 0
	L1T_total_cache_pending_hits = 0
	L1T_total_cache_reservation_fails = 0

Total_core_cache_stats:
	Total_core_cache_stats_breakdown[GLOBAL_ACC_R][HIT] = 30
	Total_core_cache_stats_breakdown[GLOBAL_ACC_R][HIT_RESERVED] = 1537
	Total_core_cache_stats_breakdown[GLOBAL_ACC_R][MISS] = 523
	Total_core_cache_stats_breakdown[GLOBAL_ACC_W][HIT] = 1
	Total_core_cache_stats_breakdown[GLOBAL_ACC_W][MISS] = 25
	Total_core_cache_stats_breakdown[INST_ACC_R][HIT] = 8313
	Total_core_cache_stats_breakdown[INST_ACC_R][MISS] = 451
	Total_core_cache_stats_breakdown[INST_ACC_R][RESERVATION_FAIL] = 3822
Shader 0 warp_id issue ditsribution:
warp_id:
0, 1, 2, 3, 4, 5, 6, 7, 8, 9, 10, 11, 12, 13, 14, 15, 16, 17, 18, 19, 20, 21, 22, 23, 24, 25, 26, 27, 28, 29, 30, 31, 32, 33, 34, 35, 36, 37, 38, 39, 40, 41, 42, 43, 44, 45, 46, 47, 
distro:
24, 24, 24, 24, 24, 24, 24, 24, 24, 24, 24, 24, 24, 24, 24, 24, 24, 24, 24, 24, 24, 24, 24, 24, 24, 24, 24, 24, 24, 24, 24, 24, 32, 32, 32, 32, 32, 32, 32, 32, 24, 24, 24, 24, 24, 24, 24, 24, 
gpgpu_n_tot_thrd_icount = 531744
gpgpu_n_tot_w_icount = 16617
gpgpu_n_stall_shd_mem = 0
gpgpu_n_mem_read_local = 0
gpgpu_n_mem_write_local = 0
gpgpu_n_mem_read_global = 523
gpgpu_n_mem_write_global = 26
gpgpu_n_mem_texture = 0
gpgpu_n_mem_const = 0
gpgpu_n_load_insn  = 65578
gpgpu_n_store_insn = 26
gpgpu_n_shmem_insn = 8
gpgpu_n_tex_insn = 0
gpgpu_n_const_mem_insn = 0
gpgpu_n_param_mem_insn = 0
gpgpu_n_shmem_bkconflict = 0
gpgpu_n_cache_bkconflict = 0
gpgpu_n_intrawarp_mshr_merge = 0
gpgpu_n_cmem_portconflict = 0
gpgpu_stall_shd_mem[c_mem][bk_conf] = 0
gpgpu_stall_shd_mem[c_mem][mshr_rc] = 0
gpgpu_stall_shd_mem[c_mem][icnt_rc] = 0
gpgpu_stall_shd_mem[c_mem][data_port_stall] = 0
gpgpu_stall_shd_mem[t_mem][mshr_rc] = 0
gpgpu_stall_shd_mem[t_mem][icnt_rc] = 0
gpgpu_stall_shd_mem[t_mem][data_port_stall] = 0
gpgpu_stall_shd_mem[s_mem][bk_conf] = 0
gpgpu_stall_shd_mem[gl_mem][bk_conf] = 0
gpgpu_stall_shd_mem[gl_mem][coal_stall] = 0
gpgpu_stall_shd_mem[gl_mem][data_port_stall] = 0
gpgpu_stall_shd_mem[g_mem_ld][mshr_rc] = 0
gpgpu_stall_shd_mem[g_mem_ld][icnt_rc] = 0
gpgpu_stall_shd_mem[g_mem_ld][wb_icnt_rc] = 0
gpgpu_stall_shd_mem[g_mem_ld][wb_rsrv_fail] = 0
gpgpu_stall_shd_mem[g_mem_st][mshr_rc] = 0
gpgpu_stall_shd_mem[g_mem_st][icnt_rc] = 0
gpgpu_stall_shd_mem[g_mem_st][wb_icnt_rc] = 0
gpgpu_stall_shd_mem[g_mem_st][wb_rsrv_fail] = 0
gpgpu_stall_shd_mem[l_mem_ld][mshr_rc] = 0
gpgpu_stall_shd_mem[l_mem_ld][icnt_rc] = 0
gpgpu_stall_shd_mem[l_mem_ld][wb_icnt_rc] = 0
gpgpu_stall_shd_mem[l_mem_ld][wb_rsrv_fail] = 0
gpgpu_stall_shd_mem[l_mem_st][mshr_rc] = 0
gpgpu_stall_shd_mem[l_mem_st][icnt_rc] = 0
gpgpu_stall_shd_mem[l_mem_ld][wb_icnt_rc] = 0
gpgpu_stall_shd_mem[l_mem_ld][wb_rsrv_fail] = 0
gpu_reg_bank_conflict_stalls = 0
Warp Occupancy Distribution:
Stall:712	W0_Idle:13343	W0_Scoreboard:23824	W1:233	W2:0	W3:0	W4:0	W5:0	W6:0	W7:0	W8:0	W9:0	W10:0	W11:0	W12:0	W13:0	W14:0	W15:0	W16:0	W17:0	W18:0	W19:0	W20:0	W21:0	W22:0	W23:0	W24:0	W25:0	W26:0	W27:0	W28:0	W29:0	W30:0	W31:0	W32:16384
traffic_breakdown_coretomem[GLOBAL_ACC_R] = 4184 {8:523,}
traffic_breakdown_coretomem[GLOBAL_ACC_W] = 1040 {40:26,}
traffic_breakdown_coretomem[INST_ACC_R] = 136 {8:17,}
traffic_breakdown_memtocore[GLOBAL_ACC_R] = 71128 {136:523,}
traffic_breakdown_memtocore[GLOBAL_ACC_W] = 208 {8:26,}
traffic_breakdown_memtocore[INST_ACC_R] = 2312 {136:17,}
Memory Partition 0: 
Cache L2_bank_000:
MSHR contents
MSHR: tag=0x80234400, atomic=0 1 entries : 0x7f108ff9f3b0 :  mf: uid= 14712, sid01:w00, part=0, addr=0x80234440, load , size=32, unknown  status = IN_PARTITION_DRAM (5414), 

Cache L2_bank_001:
MSHR contents

In Dram Latency Queue (total = 0): 
DRAM[0]: 16 bks, busW=4 BL=8 CL=12, tRRD=2 tCCD=6, tRCD=12 tRAS=28 tRP=12 tRC=40
n_cmd=7065 n_nop=6876 n_act=7 n_pre=1 n_req=91 n_rd=180 n_write=1 bw_util=0.05124
n_activity=875 dram_eff=0.4137
bk0: 6a 7015i bk1: 0a 7062i bk2: 2a 7041i bk3: 0a 7062i bk4: 0a 7064i bk5: 0a 7066i bk6: 0a 7066i bk7: 0a 7066i bk8: 0a 7067i bk9: 0a 7067i bk10: 40a 6944i bk11: 44a 6826i bk12: 44a 6958i bk13: 44a 6921i bk14: 0a 7063i bk15: 0a 7063i 
dram_util_bins: 0 0 0 0 0 0 0 0 0 0
dram_eff_bins: 0 0 0 0 0 0 0 0 0 0
mrqq: max=9 avg=0.138712
Memory Partition 1: 
Cache L2_bank_002:
MSHR contents

Cache L2_bank_003:
MSHR contents

In Dram Latency Queue (total = 0): 
DRAM[1]: 16 bks, busW=4 BL=8 CL=12, tRRD=2 tCCD=6, tRCD=12 tRAS=28 tRP=12 tRC=40
n_cmd=7065 n_nop=6873 n_act=6 n_pre=0 n_req=93 n_rd=186 n_write=0 bw_util=0.05265
n_activity=878 dram_eff=0.4237
bk0: 4a 7041i bk1: 0a 7061i bk2: 0a 7062i bk3: 0a 7063i bk4: 0a 7064i bk5: 0a 7064i bk6: 0a 7064i bk7: 0a 7066i bk8: 0a 7067i bk9: 0a 7069i bk10: 40a 6939i bk11: 44a 6823i bk12: 48a 6929i bk13: 44a 6904i bk14: 0a 7064i bk15: 6a 7039i 
dram_util_bins: 0 0 0 0 0 0 0 0 0 0
dram_eff_bins: 0 0 0 0 0 0 0 0 0 0
mrqq: max=7 avg=0.0839349
Memory Partition 2: 
Cache L2_bank_004:
MSHR contents

Cache L2_bank_005:
MSHR contents

In Dram Latency Queue (total = 0): 
DRAM[2]: 16 bks, busW=4 BL=8 CL=12, tRRD=2 tCCD=6, tRCD=12 tRAS=28 tRP=12 tRC=40
n_cmd=7065 n_nop=6879 n_act=7 n_pre=0 n_req=91 n_rd=176 n_write=3 bw_util=0.05067
n_activity=871 dram_eff=0.411
bk0: 0a 7064i bk1: 0a 7065i bk2: 0a 7065i bk3: 2a 7042i bk4: 0a 7064i bk5: 2a 7047i bk6: 0a 7065i bk7: 0a 7066i bk8: 0a 7068i bk9: 2a 7046i bk10: 40a 6944i bk11: 44a 6863i bk12: 44a 6943i bk13: 42a 6948i bk14: 0a 7062i bk15: 0a 7063i 
dram_util_bins: 0 0 0 0 0 0 0 0 0 0
dram_eff_bins: 0 0 0 0 0 0 0 0 0 0
mrqq: max=11 avg=0.149045
Memory Partition 3: 
Cache L2_bank_006:
MSHR contents

Cache L2_bank_007:
MSHR contents

In Dram Latency Queue (total = 0): 
DRAM[3]: 16 bks, busW=4 BL=8 CL=12, tRRD=2 tCCD=6, tRCD=12 tRAS=28 tRP=12 tRC=40
n_cmd=7065 n_nop=6885 n_act=6 n_pre=0 n_req=88 n_rd=172 n_write=2 bw_util=0.04926
n_activity=820 dram_eff=0.4244
bk0: 0a 7064i bk1: 0a 7065i bk2: 0a 7066i bk3: 2a 7043i bk4: 0a 7065i bk5: 2a 7042i bk6: 0a 7063i bk7: 0a 7064i bk8: 0a 7067i bk9: 0a 7068i bk10: 40a 6945i bk11: 44a 6849i bk12: 44a 6950i bk13: 40a 6940i bk14: 0a 7062i bk15: 0a 7063i 
dram_util_bins: 0 0 0 0 0 0 0 0 0 0
dram_eff_bins: 0 0 0 0 0 0 0 0 0 0
mrqq: max=9 avg=0.130078
Memory Partition 4: 
Cache L2_bank_008:
MSHR contents

Cache L2_bank_009:
MSHR contents

In Dram Latency Queue (total = 0): 
DRAM[4]: 16 bks, busW=4 BL=8 CL=12, tRRD=2 tCCD=6, tRCD=12 tRAS=28 tRP=12 tRC=40
n_cmd=7065 n_nop=6862 n_act=10 n_pre=3 n_req=97 n_rd=186 n_write=4 bw_util=0.05379
n_activity=1016 dram_eff=0.374
bk0: 0a 7064i bk1: 2a 7043i bk2: 0a 7064i bk3: 0a 7064i bk4: 0a 7064i bk5: 2a 7043i bk6: 0a 7065i bk7: 0a 7066i bk8: 0a 7069i bk9: 0a 7070i bk10: 48a 6868i bk11: 46a 6823i bk12: 44a 6922i bk13: 40a 6885i bk14: 4a 7041i bk15: 0a 7062i 
dram_util_bins: 0 0 0 0 0 0 0 0 0 0
dram_eff_bins: 0 0 0 0 0 0 0 0 0 0
mrqq: max=11 avg=0.172399
Memory Partition 5: 
Cache L2_bank_010:
MSHR contents

Cache L2_bank_011:
MSHR contents

In Dram Latency Queue (total = 0): 
DRAM[5]: 16 bks, busW=4 BL=8 CL=12, tRRD=2 tCCD=6, tRCD=12 tRAS=28 tRP=12 tRC=40
n_cmd=7065 n_nop=6886 n_act=5 n_pre=0 n_req=87 n_rd=174 n_write=0 bw_util=0.04926
n_activity=773 dram_eff=0.4502
bk0: 0a 7061i bk1: 0a 7063i bk2: 0a 7063i bk3: 0a 7063i bk4: 0a 7063i bk5: 0a 7066i bk6: 0a 7066i bk7: 0a 7067i bk8: 0a 7067i bk9: 0a 7069i bk10: 44a 6936i bk11: 44a 6859i bk12: 44a 6954i bk13: 40a 6926i bk14: 2a 7046i bk15: 0a 7061i 
dram_util_bins: 0 0 0 0 0 0 0 0 0 0
dram_eff_bins: 0 0 0 0 0 0 0 0 0 0
mrqq: max=7 avg=0.0833687

========= L2 cache stats =========
L2_cache_bank[0]: Access = 61, Miss = 46, Miss_rate = 0.754, Pending_hits = 3, Reservation_fails = 116
L2_cache_bank[1]: Access = 44, Miss = 44, Miss_rate = 1.000, Pending_hits = 0, Reservation_fails = 0
L2_cache_bank[2]: Access = 47, Miss = 46, Miss_rate = 0.979, Pending_hits = 0, Reservation_fails = 0
L2_cache_bank[3]: Access = 47, Miss = 47, Miss_rate = 1.000, Pending_hits = 0, Reservation_fails = 0
L2_cache_bank[4]: Access = 42, Miss = 42, Miss_rate = 1.000, Pending_hits = 0, Reservation_fails = 0
L2_cache_bank[5]: Access = 46, Miss = 46, Miss_rate = 1.000, Pending_hits = 0, Reservation_fails = 0
L2_cache_bank[6]: Access = 45, Miss = 42, Miss_rate = 0.933, Pending_hits = 0, Reservation_fails = 0
L2_cache_bank[7]: Access = 46, Miss = 44, Miss_rate = 0.957, Pending_hits = 0, Reservation_fails = 0
L2_cache_bank[8]: Access = 56, Miss = 48, Miss_rate = 0.857, Pending_hits = 0, Reservation_fails = 0
L2_cache_bank[9]: Access = 45, Miss = 45, Miss_rate = 1.000, Pending_hits = 0, Reservation_fails = 0
L2_cache_bank[10]: Access = 45, Miss = 45, Miss_rate = 1.000, Pending_hits = 0, Reservation_fails = 0
L2_cache_bank[11]: Access = 42, Miss = 42, Miss_rate = 1.000, Pending_hits = 0, Reservation_fails = 0
L2_total_cache_accesses = 566
L2_total_cache_misses = 537
L2_total_cache_miss_rate = 0.9488
L2_total_cache_pending_hits = 3
L2_total_cache_reservation_fails = 116
L2_total_cache_breakdown:
	L2_cache_stats_breakdown[GLOBAL_ACC_R][MISS] = 523
	L2_cache_stats_breakdown[GLOBAL_ACC_W][HIT] = 16
	L2_cache_stats_breakdown[GLOBAL_ACC_W][MISS] = 10
	L2_cache_stats_breakdown[INST_ACC_R][HIT] = 10
	L2_cache_stats_breakdown[INST_ACC_R][HIT_RESERVED] = 3
	L2_cache_stats_breakdown[INST_ACC_R][MISS] = 4
	L2_cache_stats_breakdown[INST_ACC_R][RESERVATION_FAIL] = 116
L2_cache_data_port_util = 0.001
L2_cache_fill_port_util = 0.033

icnt_total_pkts_mem_to_simt=2726
icnt_total_pkts_simt_to_mem=592
LD_mem_lat_dist  0 0 0 0 0 0 0 0 0 0 0 0 0 0 0 0 0 0 0 0 0 0 0 0 0 0 0
ST_mem_lat_dist  0 0 0 0 0 0 0 0 0 0 0 0 0 0 0 0 0 0 0 0 0 0 0 0 0 0 0
----------------------------Interconnect-DETAILS--------------------------------
Class 0:
Packet latency average = 11.833
	minimum = 6
	maximum = 88
Network latency average = 10.7641
	minimum = 6
	maximum = 69
Slowest packet = 263
Flit latency average = 9.82068
	minimum = 6
	maximum = 65
Slowest flit = 584
Fragmentation average = 0
	minimum = 0
	maximum = 0
Injected packet rate average = 0.00803738
	minimum = 0.00683035 (at node 5)
	maximum = 0.0138453 (at node 1)
Accepted packet rate average = 0.00803738
	minimum = 0.00683035 (at node 5)
	maximum = 0.0138453 (at node 1)
Injected flit rate average = 0.0235583
	minimum = 0.00683035 (at node 5)
	maximum = 0.054089 (at node 14)
Accepted flit rate average= 0.0235583
	minimum = 0.00775337 (at node 18)
	maximum = 0.0500277 (at node 1)
Injected packet length average = 2.9311
Accepted packet length average = 2.9311
Total in-flight flits = 0 (0 measured)
====== Overall Traffic Statistics ======
====== Traffic class 0 ======
Packet latency average = 11.833 (1 samples)
	minimum = 6 (1 samples)
	maximum = 88 (1 samples)
Network latency average = 10.7641 (1 samples)
	minimum = 6 (1 samples)
	maximum = 69 (1 samples)
Flit latency average = 9.82068 (1 samples)
	minimum = 6 (1 samples)
	maximum = 65 (1 samples)
Fragmentation average = 0 (1 samples)
	minimum = 0 (1 samples)
	maximum = 0 (1 samples)
Injected packet rate average = 0.00803738 (1 samples)
	minimum = 0.00683035 (1 samples)
	maximum = 0.0138453 (1 samples)
Accepted packet rate average = 0.00803738 (1 samples)
	minimum = 0.00683035 (1 samples)
	maximum = 0.0138453 (1 samples)
Injected flit rate average = 0.0235583 (1 samples)
	minimum = 0.00683035 (1 samples)
	maximum = 0.054089 (1 samples)
Accepted flit rate average = 0.0235583 (1 samples)
	minimum = 0.00775337 (1 samples)
	maximum = 0.0500277 (1 samples)
Injected packet size average = 2.9311 (1 samples)
Accepted packet size average = 2.9311 (1 samples)
Hops average = 1 (1 samples)
----------------------------END-of-Interconnect-DETAILS-------------------------


gpgpu_simulation_time = 0 days, 0 hrs, 0 min, 1 sec (1 sec)
gpgpu_simulation_rate = 458974 (inst/sec)
gpgpu_simulation_rate = 5417 (cycle/sec)
GPGPU-Sim: synchronize waiting for inactive GPU simulation
GPGPU-Sim API: Stream Manager State
GPGPU-Sim: detected inactive GPU simulation thread

GPGPU-Sim PTX: cudaLaunch for 0x0x403820 (mode=performance simulation) on stream 0
GPGPU-Sim PTX: pushing kernel '_Z6KernelP4NodePiPbS2_S1_S2_i' to stream 0, gridDim= (256,1,1) blockDim = (256,1,1) 
kernel '_Z6KernelP4NodePiPbS2_S1_S2_i' transfer to GPU hardware scheduler
GPGPU-Sim uArch: Shader 5 bind to kernel 2 '_Z6KernelP4NodePiPbS2_S1_S2_i'
GPGPU-Sim uArch: core:  5, cta: 0 initialized @(1,5417)
GPGPU-Sim uArch: Shader 6 bind to kernel 2 '_Z6KernelP4NodePiPbS2_S1_S2_i'
GPGPU-Sim uArch: core:  6, cta: 0 initialized @(1,5417)
GPGPU-Sim uArch: Shader 7 bind to kernel 2 '_Z6KernelP4NodePiPbS2_S1_S2_i'
GPGPU-Sim uArch: core:  7, cta: 0 initialized @(1,5417)
GPGPU-Sim uArch: Shader 8 bind to kernel 2 '_Z6KernelP4NodePiPbS2_S1_S2_i'
GPGPU-Sim uArch: core:  8, cta: 0 initialized @(1,5417)
GPGPU-Sim uArch: Shader 9 bind to kernel 2 '_Z6KernelP4NodePiPbS2_S1_S2_i'
GPGPU-Sim uArch: core:  9, cta: 0 initialized @(1,5417)
GPGPU-Sim uArch: Shader 10 bind to kernel 2 '_Z6KernelP4NodePiPbS2_S1_S2_i'
GPGPU-Sim uArch: core: 10, cta: 0 initialized @(1,5417)
GPGPU-Sim uArch: Shader 11 bind to kernel 2 '_Z6KernelP4NodePiPbS2_S1_S2_i'
GPGPU-Sim uArch: core: 11, cta: 0 initialized @(1,5417)
GPGPU-Sim uArch: Shader 12 bind to kernel 2 '_Z6KernelP4NodePiPbS2_S1_S2_i'
GPGPU-Sim uArch: core: 12, cta: 0 initialized @(1,5417)
GPGPU-Sim uArch: Shader 13 bind to kernel 2 '_Z6KernelP4NodePiPbS2_S1_S2_i'
GPGPU-Sim uArch: core: 13, cta: 0 initialized @(1,5417)
GPGPU-Sim uArch: Shader 0 bind to kernel 2 '_Z6KernelP4NodePiPbS2_S1_S2_i'
GPGPU-Sim uArch: core:  0, cta: 0 initialized @(1,5417)
GPGPU-Sim uArch: Shader 1 bind to kernel 2 '_Z6KernelP4NodePiPbS2_S1_S2_i'
GPGPU-Sim uArch: core:  1, cta: 0 initialized @(1,5417)
GPGPU-Sim uArch: Shader 2 bind to kernel 2 '_Z6KernelP4NodePiPbS2_S1_S2_i'
GPGPU-Sim uArch: core:  2, cta: 0 initialized @(1,5417)
GPGPU-Sim uArch: Shader 3 bind to kernel 2 '_Z6KernelP4NodePiPbS2_S1_S2_i'
GPGPU-Sim uArch: core:  3, cta: 0 initialized @(1,5417)
GPGPU-Sim uArch: Shader 4 bind to kernel 2 '_Z6KernelP4NodePiPbS2_S1_S2_i'
GPGPU-Sim uArch: core:  4, cta: 0 initialized @(1,5417)
GPGPU-Sim uArch: core:  5, cta: 1 initialized @(2,5417)
GPGPU-Sim uArch: core:  6, cta: 1 initialized @(2,5417)
GPGPU-Sim uArch: core:  7, cta: 1 initialized @(2,5417)
GPGPU-Sim uArch: core:  8, cta: 1 initialized @(2,5417)
GPGPU-Sim uArch: core:  9, cta: 1 initialized @(2,5417)
GPGPU-Sim uArch: core: 10, cta: 1 initialized @(2,5417)
GPGPU-Sim uArch: core: 11, cta: 1 initialized @(2,5417)
GPGPU-Sim uArch: core: 12, cta: 1 initialized @(2,5417)
GPGPU-Sim uArch: core: 13, cta: 1 initialized @(2,5417)
GPGPU-Sim uArch: core:  0, cta: 1 initialized @(2,5417)
GPGPU-Sim uArch: core:  1, cta: 1 initialized @(2,5417)
GPGPU-Sim uArch: core:  2, cta: 1 initialized @(2,5417)
GPGPU-Sim uArch: core:  3, cta: 1 initialized @(2,5417)
GPGPU-Sim uArch: core:  4, cta: 1 initialized @(2,5417)
GPGPU-Sim uArch: core:  5, cta: 2 initialized @(3,5417)
GPGPU-Sim uArch: core:  6, cta: 2 initialized @(3,5417)
GPGPU-Sim uArch: core:  7, cta: 2 initialized @(3,5417)
GPGPU-Sim uArch: core:  8, cta: 2 initialized @(3,5417)
GPGPU-Sim uArch: core:  9, cta: 2 initialized @(3,5417)
GPGPU-Sim uArch: core: 10, cta: 2 initialized @(3,5417)
GPGPU-Sim uArch: core: 11, cta: 2 initialized @(3,5417)
GPGPU-Sim uArch: core: 12, cta: 2 initialized @(3,5417)
GPGPU-Sim uArch: core: 13, cta: 2 initialized @(3,5417)
GPGPU-Sim uArch: core:  0, cta: 2 initialized @(3,5417)
GPGPU-Sim uArch: core:  1, cta: 2 initialized @(3,5417)
GPGPU-Sim uArch: core:  2, cta: 2 initialized @(3,5417)
GPGPU-Sim uArch: core:  3, cta: 2 initialized @(3,5417)
GPGPU-Sim uArch: core:  4, cta: 2 initialized @(3,5417)
GPGPU-Sim uArch: core:  5, cta: 3 initialized @(4,5417)
GPGPU-Sim uArch: core:  6, cta: 3 initialized @(4,5417)
GPGPU-Sim uArch: core:  7, cta: 3 initialized @(4,5417)
GPGPU-Sim uArch: core:  8, cta: 3 initialized @(4,5417)
GPGPU-Sim uArch: core:  9, cta: 3 initialized @(4,5417)
GPGPU-Sim uArch: core: 10, cta: 3 initialized @(4,5417)
GPGPU-Sim uArch: core: 11, cta: 3 initialized @(4,5417)
GPGPU-Sim uArch: core: 12, cta: 3 initialized @(4,5417)
GPGPU-Sim uArch: core: 13, cta: 3 initialized @(4,5417)
GPGPU-Sim uArch: core:  0, cta: 3 initialized @(4,5417)
GPGPU-Sim uArch: core:  1, cta: 3 initialized @(4,5417)
GPGPU-Sim uArch: core:  2, cta: 3 initialized @(4,5417)
GPGPU-Sim uArch: core:  3, cta: 3 initialized @(4,5417)
GPGPU-Sim uArch: core:  4, cta: 3 initialized @(4,5417)
GPGPU-Sim uArch: core:  5, cta: 4 initialized @(5,5417)
GPGPU-Sim uArch: core:  6, cta: 4 initialized @(5,5417)
GPGPU-Sim uArch: core:  7, cta: 4 initialized @(5,5417)
GPGPU-Sim uArch: core:  8, cta: 4 initialized @(5,5417)
GPGPU-Sim uArch: core:  9, cta: 4 initialized @(5,5417)
GPGPU-Sim uArch: core: 10, cta: 4 initialized @(5,5417)
GPGPU-Sim uArch: core: 11, cta: 4 initialized @(5,5417)
GPGPU-Sim uArch: core: 12, cta: 4 initialized @(5,5417)
GPGPU-Sim uArch: core: 13, cta: 4 initialized @(5,5417)
GPGPU-Sim uArch: core:  0, cta: 4 initialized @(5,5417)
GPGPU-Sim uArch: core:  1, cta: 4 initialized @(5,5417)
GPGPU-Sim uArch: core:  2, cta: 4 initialized @(5,5417)
GPGPU-Sim uArch: core:  3, cta: 4 initialized @(5,5417)
GPGPU-Sim uArch: core:  4, cta: 4 initialized @(5,5417)
GPGPU-Sim uArch: core:  5, cta: 5 initialized @(6,5417)
GPGPU-Sim uArch: core:  6, cta: 5 initialized @(6,5417)
GPGPU-Sim uArch: core:  7, cta: 5 initialized @(6,5417)
GPGPU-Sim uArch: core:  8, cta: 5 initialized @(6,5417)
GPGPU-Sim uArch: core:  9, cta: 5 initialized @(6,5417)
GPGPU-Sim uArch: core: 10, cta: 5 initialized @(6,5417)
GPGPU-Sim uArch: core: 11, cta: 5 initialized @(6,5417)
GPGPU-Sim uArch: core: 12, cta: 5 initialized @(6,5417)
GPGPU-Sim uArch: core: 13, cta: 5 initialized @(6,5417)
GPGPU-Sim uArch: core:  0, cta: 5 initialized @(6,5417)
GPGPU-Sim uArch: core:  1, cta: 5 initialized @(6,5417)
GPGPU-Sim uArch: core:  2, cta: 5 initialized @(6,5417)
GPGPU-Sim uArch: core:  3, cta: 5 initialized @(6,5417)
GPGPU-Sim uArch: core:  4, cta: 5 initialized @(6,5417)
GPGPU-Sim uArch: Shader 1 finished CTA #0 (285,5417), 5 CTAs running
GPGPU-Sim uArch: core:  1, cta: 0 initialized @(286,5417)
GPGPU-Sim uArch: Shader 2 finished CTA #0 (287,5417), 5 CTAs running
GPGPU-Sim uArch: core:  2, cta: 0 initialized @(288,5417)
GPGPU-Sim uArch: Shader 0 finished CTA #0 (288,5417), 5 CTAs running
GPGPU-Sim uArch: Shader 7 finished CTA #0 (288,5417), 5 CTAs running
GPGPU-Sim uArch: Shader 8 finished CTA #0 (288,5417), 5 CTAs running
GPGPU-Sim uArch: Shader 9 finished CTA #0 (288,5417), 5 CTAs running
GPGPU-Sim uArch: Shader 10 finished CTA #0 (288,5417), 5 CTAs running
GPGPU-Sim uArch: Shader 11 finished CTA #0 (288,5417), 5 CTAs running
GPGPU-Sim uArch: Shader 12 finished CTA #0 (288,5417), 5 CTAs running
GPGPU-Sim uArch: Shader 13 finished CTA #0 (288,5417), 5 CTAs running
GPGPU-Sim uArch: core:  7, cta: 0 initialized @(289,5417)
GPGPU-Sim uArch: core:  8, cta: 0 initialized @(289,5417)
GPGPU-Sim uArch: core:  9, cta: 0 initialized @(289,5417)
GPGPU-Sim uArch: core: 10, cta: 0 initialized @(289,5417)
GPGPU-Sim uArch: core: 11, cta: 0 initialized @(289,5417)
GPGPU-Sim uArch: core: 12, cta: 0 initialized @(289,5417)
GPGPU-Sim uArch: core: 13, cta: 0 initialized @(289,5417)
GPGPU-Sim uArch: core:  0, cta: 0 initialized @(289,5417)
GPGPU-Sim uArch: Shader 0 finished CTA #1 (299,5417), 5 CTAs running
GPGPU-Sim uArch: Shader 13 finished CTA #1 (299,5417), 5 CTAs running
GPGPU-Sim uArch: core: 13, cta: 1 initialized @(300,5417)
GPGPU-Sim uArch: core:  0, cta: 1 initialized @(300,5417)
GPGPU-Sim uArch: Shader 3 finished CTA #0 (300,5417), 5 CTAs running
GPGPU-Sim uArch: Shader 4 finished CTA #0 (300,5417), 5 CTAs running
GPGPU-Sim uArch: core:  3, cta: 0 initialized @(301,5417)
GPGPU-Sim uArch: core:  4, cta: 0 initialized @(301,5417)
GPGPU-Sim uArch: Shader 7 finished CTA #1 (303,5417), 5 CTAs running
GPGPU-Sim uArch: Shader 8 finished CTA #1 (303,5417), 5 CTAs running
GPGPU-Sim uArch: Shader 9 finished CTA #1 (303,5417), 5 CTAs running
GPGPU-Sim uArch: Shader 10 finished CTA #1 (303,5417), 5 CTAs running
GPGPU-Sim uArch: Shader 11 finished CTA #1 (303,5417), 5 CTAs running
GPGPU-Sim uArch: Shader 12 finished CTA #1 (303,5417), 5 CTAs running
GPGPU-Sim uArch: core:  7, cta: 1 initialized @(304,5417)
GPGPU-Sim uArch: core:  8, cta: 1 initialized @(304,5417)
GPGPU-Sim uArch: core:  9, cta: 1 initialized @(304,5417)
GPGPU-Sim uArch: core: 10, cta: 1 initialized @(304,5417)
GPGPU-Sim uArch: core: 11, cta: 1 initialized @(304,5417)
GPGPU-Sim uArch: core: 12, cta: 1 initialized @(304,5417)
GPGPU-Sim uArch: Shader 5 finished CTA #0 (306,5417), 5 CTAs running
GPGPU-Sim uArch: Shader 6 finished CTA #0 (306,5417), 5 CTAs running
GPGPU-Sim uArch: core:  5, cta: 0 initialized @(307,5417)
GPGPU-Sim uArch: core:  6, cta: 0 initialized @(307,5417)
GPGPU-Sim uArch: Shader 3 finished CTA #1 (309,5417), 5 CTAs running
GPGPU-Sim uArch: Shader 4 finished CTA #1 (309,5417), 5 CTAs running
GPGPU-Sim uArch: core:  3, cta: 1 initialized @(310,5417)
GPGPU-Sim uArch: core:  4, cta: 1 initialized @(310,5417)
GPGPU-Sim uArch: Shader 5 finished CTA #1 (315,5417), 5 CTAs running
GPGPU-Sim uArch: Shader 6 finished CTA #1 (315,5417), 5 CTAs running
GPGPU-Sim uArch: core:  5, cta: 1 initialized @(316,5417)
GPGPU-Sim uArch: core:  6, cta: 1 initialized @(316,5417)
GPGPU-Sim uArch: Shader 11 finished CTA #2 (323,5417), 5 CTAs running
GPGPU-Sim uArch: Shader 12 finished CTA #2 (323,5417), 5 CTAs running
GPGPU-Sim uArch: core: 11, cta: 2 initialized @(324,5417)
GPGPU-Sim uArch: core: 12, cta: 2 initialized @(324,5417)
GPGPU-Sim uArch: Shader 7 finished CTA #2 (324,5417), 5 CTAs running
GPGPU-Sim uArch: Shader 8 finished CTA #2 (324,5417), 5 CTAs running
GPGPU-Sim uArch: Shader 9 finished CTA #2 (324,5417), 5 CTAs running
GPGPU-Sim uArch: Shader 10 finished CTA #2 (324,5417), 5 CTAs running
GPGPU-Sim uArch: core:  7, cta: 2 initialized @(325,5417)
GPGPU-Sim uArch: core:  8, cta: 2 initialized @(325,5417)
GPGPU-Sim uArch: core:  9, cta: 2 initialized @(325,5417)
GPGPU-Sim uArch: core: 10, cta: 2 initialized @(325,5417)
GPGPU-Sim uArch: Shader 1 finished CTA #1 (334,5417), 5 CTAs running
GPGPU-Sim uArch: Shader 9 finished CTA #3 (334,5417), 5 CTAs running
GPGPU-Sim uArch: Shader 10 finished CTA #3 (334,5417), 5 CTAs running
GPGPU-Sim uArch: core:  1, cta: 1 initialized @(335,5417)
GPGPU-Sim uArch: core:  9, cta: 3 initialized @(335,5417)
GPGPU-Sim uArch: core: 10, cta: 3 initialized @(335,5417)
GPGPU-Sim uArch: Shader 2 finished CTA #1 (335,5417), 5 CTAs running
GPGPU-Sim uArch: core:  2, cta: 1 initialized @(336,5417)
GPGPU-Sim uArch: Shader 3 finished CTA #2 (336,5417), 5 CTAs running
GPGPU-Sim uArch: core:  3, cta: 2 initialized @(337,5417)
GPGPU-Sim uArch: Shader 7 finished CTA #3 (340,5417), 5 CTAs running
GPGPU-Sim uArch: Shader 8 finished CTA #3 (340,5417), 5 CTAs running
GPGPU-Sim uArch: core:  7, cta: 3 initialized @(341,5417)
GPGPU-Sim uArch: core:  8, cta: 3 initialized @(341,5417)
GPGPU-Sim uArch: Shader 5 finished CTA #2 (342,5417), 5 CTAs running
GPGPU-Sim uArch: Shader 6 finished CTA #2 (342,5417), 5 CTAs running
GPGPU-Sim uArch: core:  5, cta: 2 initialized @(343,5417)
[...]
	L1D_cache_core[7]: Access = 3894, Miss = 2069, Miss_rate = 0.531, Pending_hits = 534, Reservation_fails = 13907
	L1D_cache_core[8]: Access = 4798, Miss = 2656, Miss_rate = 0.554, Pending_hits = 652, Reservation_fails = 13592
	L1D_cache_core[9]: Access = 3589, Miss = 1976, Miss_rate = 0.551, Pending_hits = 523, Reservation_fails = 10683
	L1D_cache_core[10]: Access = 3659, Miss = 2006, Miss_rate = 0.548, Pending_hits = 551, Reservation_fails = 12706
	L1D_cache_core[11]: Access = 3772, Miss = 1853, Miss_rate = 0.491, Pending_hits = 525, Reservation_fails = 6991
	L1D_cache_core[12]: Access = 4341, Miss = 2368, Miss_rate = 0.545, Pending_hits = 586, Reservation_fails = 11938
	L1D_cache_core[13]: Access = 3551, Miss = 1838, Miss_rate = 0.518, Pending_hits = 527, Reservation_fails = 11332
	L1D_total_cache_accesses = 56784
	L1D_total_cache_misses = 30975
	L1D_total_cache_miss_rate = 0.5455
	L1D_total_cache_pending_hits = 7836
	L1D_total_cache_reservation_fails = 164521
	L1D_cache_data_port_util = 0.037
	L1D_cache_fill_port_util = 0.028
L1C_cache:
	L1C_total_cache_accesses = 0
	L1C_total_cache_misses = 0
	L1C_total_cache_pending_hits = 0
	L1C_total_cache_reservation_fails = 0
L1T_cache:
	L1T_total_cache_accesses = 0
	L1T_total_cache_misses = 0
	L1T_total_cache_pending_hits = 0
	L1T_total_cache_reservation_fails = 0

Total_core_cache_stats:
	Total_core_cache_stats_breakdown[GLOBAL_ACC_R][HIT] = 17455
	Total_core_cache_stats_breakdown[GLOBAL_ACC_R][HIT_RESERVED] = 7828
	Total_core_cache_stats_breakdown[GLOBAL_ACC_R][MISS] = 13524
	Total_core_cache_stats_breakdown[GLOBAL_ACC_R][RESERVATION_FAIL] = 105362
	Total_core_cache_stats_breakdown[GLOBAL_ACC_W][HIT] = 518
	Total_core_cache_stats_breakdown[GLOBAL_ACC_W][HIT_RESERVED] = 8
	Total_core_cache_stats_breakdown[GLOBAL_ACC_W][MISS] = 17451
	Total_core_cache_stats_breakdown[GLOBAL_ACC_W][RESERVATION_FAIL] = 59159
	Total_core_cache_stats_breakdown[INST_ACC_R][HIT] = 108843
	Total_core_cache_stats_breakdown[INST_ACC_R][MISS] = 537
	Total_core_cache_stats_breakdown[INST_ACC_R][RESERVATION_FAIL] = 3822
Shader 0 warp_id issue ditsribution:
warp_id:
0, 1, 2, 3, 4, 5, 6, 7, 8, 9, 10, 11, 12, 13, 14, 15, 16, 17, 18, 19, 20, 21, 22, 23, 24, 25, 26, 27, 28, 29, 30, 31, 32, 33, 34, 35, 36, 37, 38, 39, 40, 41, 42, 43, 44, 45, 46, 47, 
distro:
248, 697, 410, 329, 329, 275, 221, 112, 251, 278, 279, 251, 565, 88, 495, 278, 456, 104, 278, 213, 364, 364, 104, 310, 410, 232, 585, 383, 96, 519, 96, 232, 216, 243, 243, 80, 80, 80, 324, 351, 88, 88, 278, 88, 386, 224, 305, 88, 
gpgpu_n_tot_thrd_icount = 6743968
gpgpu_n_tot_w_icount = 210749
gpgpu_n_stall_shd_mem = 171531
gpgpu_n_mem_read_local = 0
gpgpu_n_mem_write_local = 0
gpgpu_n_mem_read_global = 13524
gpgpu_n_mem_write_global = 17977
gpgpu_n_mem_texture = 0
gpgpu_n_mem_const = 0
gpgpu_n_load_insn  = 295886
gpgpu_n_store_insn = 19796
gpgpu_n_shmem_insn = 5948
gpgpu_n_tex_insn = 0
gpgpu_n_const_mem_insn = 0
gpgpu_n_param_mem_insn = 0
gpgpu_n_shmem_bkconflict = 0
gpgpu_n_cache_bkconflict = 0
gpgpu_n_intrawarp_mshr_merge = 0
gpgpu_n_cmem_portconflict = 0
gpgpu_stall_shd_mem[c_mem][bk_conf] = 0
gpgpu_stall_shd_mem[c_mem][mshr_rc] = 0
gpgpu_stall_shd_mem[c_mem][icnt_rc] = 0
gpgpu_stall_shd_mem[c_mem][data_port_stall] = 0
gpgpu_stall_shd_mem[t_mem][mshr_rc] = 0
gpgpu_stall_shd_mem[t_mem][icnt_rc] = 0
gpgpu_stall_shd_mem[t_mem][data_port_stall] = 0
gpgpu_stall_shd_mem[s_mem][bk_conf] = 0
gpgpu_stall_shd_mem[gl_mem][bk_conf] = 0
gpgpu_stall_shd_mem[gl_mem][coal_stall] = 171531
gpgpu_stall_shd_mem[gl_mem][data_port_stall] = 0
gpgpu_stall_shd_mem[g_mem_ld][mshr_rc] = 0
gpgpu_stall_shd_mem[g_mem_ld][icnt_rc] = 0
gpgpu_stall_shd_mem[g_mem_ld][wb_icnt_rc] = 0
gpgpu_stall_shd_mem[g_mem_ld][wb_rsrv_fail] = 0
gpgpu_stall_shd_mem[g_mem_st][mshr_rc] = 0
gpgpu_stall_shd_mem[g_mem_st][icnt_rc] = 0
gpgpu_stall_shd_mem[g_mem_st][wb_icnt_rc] = 0
gpgpu_stall_shd_mem[g_mem_st][wb_rsrv_fail] = 0
gpgpu_stall_shd_mem[l_mem_ld][mshr_rc] = 0
gpgpu_stall_shd_mem[l_mem_ld][icnt_rc] = 0
gpgpu_stall_shd_mem[l_mem_ld][wb_icnt_rc] = 0
gpgpu_stall_shd_mem[l_mem_ld][wb_rsrv_fail] = 0
gpgpu_stall_shd_mem[l_mem_st][mshr_rc] = 0
gpgpu_stall_shd_mem[l_mem_st][icnt_rc] = 0
gpgpu_stall_shd_mem[l_mem_ld][wb_icnt_rc] = 0
gpgpu_stall_shd_mem[l_mem_ld][wb_rsrv_fail] = 0
gpu_reg_bank_conflict_stalls = 0
Warp Occupancy Distribution:
Stall:256144	W0_Idle:80416	W0_Scoreboard:428049	W1:111129	W2:26290	W3:6422	W4:1372	W5:0	W6:0	W7:0	W8:0	W9:0	W10:0	W11:0	W12:0	W13:0	W14:0	W15:0	W16:0	W17:0	W18:0	W19:0	W20:0	W21:0	W22:0	W23:0	W24:0	W25:0	W26:0	W27:0	W28:0	W29:0	W30:0	W31:0	W32:65536
traffic_breakdown_coretomem[GLOBAL_ACC_R] = 108192 {8:13524,}
traffic_breakdown_coretomem[GLOBAL_ACC_W] = 719176 {40:17976,136:1,}
traffic_breakdown_coretomem[INST_ACC_R] = 448 {8:56,}
traffic_breakdown_memtocore[GLOBAL_ACC_R] = 1839264 {136:13524,}
traffic_breakdown_memtocore[GLOBAL_ACC_W] = 143816 {8:17977,}
traffic_breakdown_memtocore[INST_ACC_R] = 7616 {136:56,}
Memory Partition 0: 
Cache L2_bank_000:
MSHR contents

Cache L2_bank_001:
MSHR contents

In Dram Latency Queue (total = 0): 
DRAM[0]: 16 bks, busW=4 BL=8 CL=12, tRRD=2 tCCD=6, tRCD=12 tRAS=28 tRP=12 tRC=40
n_cmd=61775 n_nop=59390 n_act=235 n_pre=219 n_req=1125 n_rd=1612 n_write=319 bw_util=0.06252
n_activity=15688 dram_eff=0.2462
bk0: 84a 60883i bk1: 86a 60780i bk2: 100a 60710i bk3: 114a 60565i bk4: 114a 60634i bk5: 114a 60615i bk6: 118a 60499i bk7: 126a 60194i bk8: 114a 60726i bk9: 104a 60566i bk10: 78a 61198i bk11: 102a 60847i bk12: 92a 61337i bk13: 90a 61230i bk14: 82a 61303i bk15: 94a 61281i 
dram_util_bins: 0 0 0 0 0 0 0 0 0 0
dram_eff_bins: 0 0 0 0 0 0 0 0 0 0
mrqq: max=9 avg=0.0840308
Memory Partition 1: 
Cache L2_bank_002:
MSHR contents

Cache L2_bank_003:
MSHR contents

In Dram Latency Queue (total = 0): 
DRAM[1]: 16 bks, busW=4 BL=8 CL=12, tRRD=2 tCCD=6, tRCD=12 tRAS=28 tRP=12 tRC=40
n_cmd=61775 n_nop=59374 n_act=255 n_pre=239 n_req=1116 n_rd=1580 n_write=327 bw_util=0.06174
n_activity=16215 dram_eff=0.2352
bk0: 84a 60671i bk1: 84a 60700i bk2: 90a 60728i bk3: 98a 60512i bk4: 124a 60547i bk5: 102a 60661i bk6: 106a 60444i bk7: 128a 60156i bk8: 120a 60504i bk9: 116a 60710i bk10: 98a 61036i bk11: 98a 60772i bk12: 78a 61367i bk13: 74a 61362i bk14: 88a 61299i bk15: 92a 61222i 
dram_util_bins: 0 0 0 0 0 0 0 0 0 0
dram_eff_bins: 0 0 0 0 0 0 0 0 0 0
mrqq: max=7 avg=0.0787374
Memory Partition 2: 
Cache L2_bank_004:
MSHR contents

Cache L2_bank_005:
MSHR contents

In Dram Latency Queue (total = 0): 
DRAM[2]: 16 bks, busW=4 BL=8 CL=12, tRRD=2 tCCD=6, tRCD=12 tRAS=28 tRP=12 tRC=40
n_cmd=61775 n_nop=59332 n_act=260 n_pre=244 n_req=1135 n_rd=1608 n_write=331 bw_util=0.06278
n_activity=16105 dram_eff=0.2408
bk0: 92a 60756i bk1: 80a 60878i bk2: 106a 60518i bk3: 106a 60572i bk4: 94a 60688i bk5: 118a 60426i bk6: 102a 60447i bk7: 114a 60448i bk8: 116a 60542i bk9: 124a 60462i bk10: 90a 61012i bk11: 100a 61012i bk12: 92a 61215i bk13: 98a 61239i bk14: 90a 61380i bk15: 86a 61416i 
dram_util_bins: 0 0 0 0 0 0 0 0 0 0
dram_eff_bins: 0 0 0 0 0 0 0 0 0 0
mrqq: max=11 avg=0.0843869
Memory Partition 3: 
Cache L2_bank_006:
MSHR contents

Cache L2_bank_007:
MSHR contents

In Dram Latency Queue (total = 0): 
DRAM[3]: 16 bks, busW=4 BL=8 CL=12, tRRD=2 tCCD=6, tRCD=12 tRAS=28 tRP=12 tRC=40
n_cmd=61775 n_nop=59280 n_act=269 n_pre=253 n_req=1153 n_rd=1640 n_write=333 bw_util=0.06388
n_activity=16886 dram_eff=0.2337
bk0: 92a 60680i bk1: 90a 60596i bk2: 110a 60527i bk3: 116a 60574i bk4: 82a 60680i bk5: 112a 60527i bk6: 106a 60744i bk7: 114a 60411i bk8: 128a 60421i bk9: 150a 60166i bk10: 100a 60907i bk11: 96a 60884i bk12: 76a 61364i bk13: 94a 61124i bk14: 92a 61302i bk15: 82a 61396i 
dram_util_bins: 0 0 0 0 0 0 0 0 0 0
dram_eff_bins: 0 0 0 0 0 0 0 0 0 0
mrqq: max=9 avg=0.089745
Memory Partition 4: 
Cache L2_bank_008:
MSHR contents

Cache L2_bank_009:
MSHR contents

In Dram Latency Queue (total = 0): 
DRAM[4]: 16 bks, busW=4 BL=8 CL=12, tRRD=2 tCCD=6, tRCD=12 tRAS=28 tRP=12 tRC=40
n_cmd=61775 n_nop=59360 n_act=245 n_pre=229 n_req=1134 n_rd=1614 n_write=327 bw_util=0.06284
n_activity=16374 dram_eff=0.2371
bk0: 90a 60745i bk1: 114a 60376i bk2: 90a 60758i bk3: 106a 60530i bk4: 112a 60700i bk5: 90a 60747i bk6: 114a 60628i bk7: 98a 60742i bk8: 130a 60411i bk9: 132a 60442i bk10: 114a 60892i bk11: 88a 61056i bk12: 92a 61201i bk13: 90a 61237i bk14: 82a 61402i bk15: 72a 61407i 
dram_util_bins: 0 0 0 0 0 0 0 0 0 0
dram_eff_bins: 0 0 0 0 0 0 0 0 0 0
mrqq: max=11 avg=0.0834642
Memory Partition 5: 
Cache L2_bank_010:
MSHR contents

Cache L2_bank_011:
MSHR contents

In Dram Latency Queue (total = 0): 
DRAM[5]: 16 bks, busW=4 BL=8 CL=12, tRRD=2 tCCD=6, tRCD=12 tRAS=28 tRP=12 tRC=40
n_cmd=61775 n_nop=59305 n_act=271 n_pre=255 n_req=1133 n_rd=1620 n_write=324 bw_util=0.06294
n_activity=16401 dram_eff=0.2371
bk0: 94a 60711i bk1: 94a 60715i bk2: 102a 60494i bk3: 100a 60577i bk4: 96a 60569i bk5: 110a 60487i bk6: 132a 60413i bk7: 118a 60472i bk8: 126a 60633i bk9: 120a 60429i bk10: 104a 60923i bk11: 88a 61024i bk12: 78a 61372i bk13: 84a 61230i bk14: 86a 61353i bk15: 88a 61139i 
dram_util_bins: 0 0 0 0 0 0 0 0 0 0
dram_eff_bins: 0 0 0 0 0 0 0 0 0 0
mrqq: max=7 avg=0.0839174

========= L2 cache stats =========
L2_cache_bank[0]: Access = 2237, Miss = 391, Miss_rate = 0.175, Pending_hits = 7, Reservation_fails = 116
L2_cache_bank[1]: Access = 2237, Miss = 415, Miss_rate = 0.186, Pending_hits = 7, Reservation_fails = 0
L2_cache_bank[2]: Access = 2275, Miss = 394, Miss_rate = 0.173, Pending_hits = 6, Reservation_fails = 0
L2_cache_bank[3]: Access = 2168, Miss = 396, Miss_rate = 0.183, Pending_hits = 3, Reservation_fails = 0
L2_cache_bank[4]: Access = 2202, Miss = 391, Miss_rate = 0.178, Pending_hits = 2, Reservation_fails = 0
L2_cache_bank[5]: Access = 2286, Miss = 413, Miss_rate = 0.181, Pending_hits = 4, Reservation_fails = 0
L2_cache_bank[6]: Access = 2171, Miss = 393, Miss_rate = 0.181, Pending_hits = 4, Reservation_fails = 0
L2_cache_bank[7]: Access = 2212, Miss = 427, Miss_rate = 0.193, Pending_hits = 7, Reservation_fails = 0
L2_cache_bank[8]: Access = 6990, Miss = 412, Miss_rate = 0.059, Pending_hits = 2, Reservation_fails = 0
L2_cache_bank[9]: Access = 2260, Miss = 395, Miss_rate = 0.175, Pending_hits = 4, Reservation_fails = 0
L2_cache_bank[10]: Access = 2280, Miss = 409, Miss_rate = 0.179, Pending_hits = 7, Reservation_fails = 0
L2_cache_bank[11]: Access = 2239, Miss = 401, Miss_rate = 0.179, Pending_hits = 4, Reservation_fails = 0
L2_total_cache_accesses = 31557
L2_total_cache_misses = 4837
L2_total_cache_miss_rate = 0.1533
L2_total_cache_pending_hits = 57
L2_total_cache_reservation_fails = 116
L2_total_cache_breakdown:
	L2_cache_stats_breakdown[GLOBAL_ACC_R][HIT] = 10594
	L2_cache_stats_breakdown[GLOBAL_ACC_R][HIT_RESERVED] = 23
	L2_cache_stats_breakdown[GLOBAL_ACC_R][MISS] = 2907
	L2_cache_stats_breakdown[GLOBAL_ACC_W][HIT] = 16020
	L2_cache_stats_breakdown[GLOBAL_ACC_W][HIT_RESERVED] = 31
	L2_cache_stats_breakdown[GLOBAL_ACC_W][MISS] = 1926
	L2_cache_stats_breakdown[INST_ACC_R][HIT] = 49
	L2_cache_stats_breakdown[INST_ACC_R][HIT_RESERVED] = 3
	L2_cache_stats_breakdown[INST_ACC_R][MISS] = 4
	L2_cache_stats_breakdown[INST_ACC_R][RESERVATION_FAIL] = 116
L2_cache_data_port_util = 0.103
L2_cache_fill_port_util = 0.034

icnt_total_pkts_mem_to_simt=85877
icnt_total_pkts_simt_to_mem=49537
LD_mem_lat_dist  0 0 0 0 0 0 0 0 0 0 0 0 0 0 0 0 0 0 0 0 0 0 0 0 0 0 0
ST_mem_lat_dist  0 0 0 0 0 0 0 0 0 0 0 0 0 0 0 0 0 0 0 0 0 0 0 0 0 0 0
----------------------------Interconnect-DETAILS--------------------------------
Class 0:
Packet latency average = 62.7006
	minimum = 6
	maximum = 470
Network latency average = 36.0245
	minimum = 6
	maximum = 365
Slowest packet = 8725
Flit latency average = 29.112
	minimum = 6
	maximum = 364
Slowest flit = 80102
Fragmentation average = 0.0517022
	minimum = 0
	maximum = 245
Injected packet rate average = 0.0720648
	minimum = 0.054481 (at node 0)
	maximum = 0.2114 (at node 22)
Accepted packet rate average = 0.0720648
	minimum = 0.054481 (at node 0)
	maximum = 0.2114 (at node 22)
Injected flit rate average = 0.15196
	minimum = 0.0869709 (at node 0)
	maximum = 0.336193 (at node 22)
Accepted flit rate average= 0.15196
	minimum = 0.0969398 (at node 17)
	maximum = 0.391601 (at node 22)
Injected packet length average = 2.10865
Accepted packet length average = 2.10865
Total in-flight flits = 0 (0 measured)
====== Overall Traffic Statistics ======
====== Traffic class 0 ======
Packet latency average = 23.0768 (4 samples)
	minimum = 6 (4 samples)
	maximum = 160 (4 samples)
Network latency average = 15.8909 (4 samples)
	minimum = 6 (4 samples)
	maximum = 122 (4 samples)
Flit latency average = 13.432 (4 samples)
	minimum = 6 (4 samples)
	maximum = 118.75 (4 samples)
Fragmentation average = 0.0129255 (4 samples)
	minimum = 0 (4 samples)
	maximum = 61.25 (4 samples)
Injected packet rate average = 0.0285757 (4 samples)
	minimum = 0.0183859 (4 samples)
	maximum = 0.0801413 (4 samples)
Accepted packet rate average = 0.0285757 (4 samples)
	minimum = 0.0183859 (4 samples)
	maximum = 0.0801413 (4 samples)
Injected flit rate average = 0.0642566 (4 samples)
	minimum = 0.0265083 (4 samples)
	maximum = 0.143809 (4 samples)
Accepted flit rate average = 0.0642566 (4 samples)
	minimum = 0.034958 (4 samples)
	maximum = 0.160096 (4 samples)
Injected packet size average = 2.24864 (4 samples)
Accepted packet size average = 2.24864 (4 samples)
Hops average = 1 (4 samples)
----------------------------END-of-Interconnect-DETAILS-------------------------


gpgpu_simulation_time = 0 days, 0 hrs, 0 min, 11 sec (11 sec)
gpgpu_simulation_rate = 183145 (inst/sec)
gpgpu_simulation_rate = 4305 (cycle/sec)
GPGPU-Sim: synchronize waiting for inactive GPU simulation
GPGPU-Sim API: Stream Manager State
GPGPU-Sim: detected inactive GPU simulation thread

GPGPU-Sim PTX: cudaLaunch for 0x0x403820 (mode=performance simulation) on stream 0
GPGPU-Sim PTX: pushing kernel '_Z6KernelP4NodePiPbS2_S1_S2_i' to stream 0, gridDim= (256,1,1) blockDim = (256,1,1) 
kernel '_Z6KernelP4NodePiPbS2_S1_S2_i' transfer to GPU hardware scheduler
GPGPU-Sim uArch: Shader 12 bind to kernel 5 '_Z6KernelP4NodePiPbS2_S1_S2_i'
GPGPU-Sim uArch: core: 12, cta: 0 initialized @(1,47363)
GPGPU-Sim uArch: Shader 13 bind to kernel 5 '_Z6KernelP4NodePiPbS2_S1_S2_i'
GPGPU-Sim uArch: core: 13, cta: 0 initialized @(1,47363)
GPGPU-Sim uArch: Shader 0 bind to kernel 5 '_Z6KernelP4NodePiPbS2_S1_S2_i'
GPGPU-Sim uArch: core:  0, cta: 0 initialized @(1,47363)
GPGPU-Sim uArch: Shader 1 bind to kernel 5 '_Z6KernelP4NodePiPbS2_S1_S2_i'
GPGPU-Sim uArch: core:  1, cta: 0 initialized @(1,47363)
GPGPU-Sim uArch: Shader 2 bind to kernel 5 '_Z6KernelP4NodePiPbS2_S1_S2_i'
GPGPU-Sim uArch: core:  2, cta: 0 initialized @(1,47363)
GPGPU-Sim uArch: Shader 3 bind to kernel 5 '_Z6KernelP4NodePiPbS2_S1_S2_i'
GPGPU-Sim uArch: core:  3, cta: 0 initialized @(1,47363)
GPGPU-Sim uArch: Shader 4 bind to kernel 5 '_Z6KernelP4NodePiPbS2_S1_S2_i'
GPGPU-Sim uArch: core:  4, cta: 0 initialized @(1,47363)
GPGPU-Sim uArch: Shader 5 bind to kernel 5 '_Z6KernelP4NodePiPbS2_S1_S2_i'
GPGPU-Sim uArch: core:  5, cta: 0 initialized @(1,47363)
GPGPU-Sim uArch: Shader 6 bind to kernel 5 '_Z6KernelP4NodePiPbS2_S1_S2_i'
GPGPU-Sim uArch: core:  6, cta: 0 initialized @(1,47363)
GPGPU-Sim uArch: Shader 7 bind to kernel 5 '_Z6KernelP4NodePiPbS2_S1_S2_i'
GPGPU-Sim uArch: core:  7, cta: 0 initialized @(1,47363)
GPGPU-Sim uArch: Shader 8 bind to kernel 5 '_Z6KernelP4NodePiPbS2_S1_S2_i'
GPGPU-Sim uArch: core:  8, cta: 0 initialized @(1,47363)
GPGPU-Sim uArch: Shader 9 bind to kernel 5 '_Z6KernelP4NodePiPbS2_S1_S2_i'
GPGPU-Sim uArch: core:  9, cta: 0 initialized @(1,47363)
GPGPU-Sim uArch: Shader 10 bind to kernel 5 '_Z6KernelP4NodePiPbS2_S1_S2_i'
GPGPU-Sim uArch: core: 10, cta: 0 initialized @(1,47363)
GPGPU-Sim uArch: Shader 11 bind to kernel 5 '_Z6KernelP4NodePiPbS2_S1_S2_i'
GPGPU-Sim uArch: core: 11, cta: 0 initialized @(1,47363)
GPGPU-Sim uArch: core: 12, cta: 1 initialized @(2,47363)
GPGPU-Sim uArch: core: 13, cta: 1 initialized @(2,47363)
GPGPU-Sim uArch: core:  0, cta: 1 initialized @(2,47363)
GPGPU-Sim uArch: core:  1, cta: 1 initialized @(2,47363)
GPGPU-Sim uArch: core:  2, cta: 1 initialized @(2,47363)
GPGPU-Sim uArch: core:  3, cta: 1 initialized @(2,47363)
GPGPU-Sim uArch: core:  4, cta: 1 initialized @(2,47363)
GPGPU-Sim uArch: core:  5, cta: 1 initialized @(2,47363)
GPGPU-Sim uArch: core:  6, cta: 1 initialized @(2,47363)
GPGPU-Sim uArch: core:  7, cta: 1 initialized @(2,47363)
GPGPU-Sim uArch: core:  8, cta: 1 initialized @(2,47363)
GPGPU-Sim uArch: core:  9, cta: 1 initialized @(2,47363)
GPGPU-Sim uArch: core: 10, cta: 1 initialized @(2,47363)
GPGPU-Sim uArch: core: 11, cta: 1 initialized @(2,47363)
GPGPU-Sim uArch: core: 12, cta: 2 initialized @(3,47363)
GPGPU-Sim uArch: core: 13, cta: 2 initialized @(3,47363)
GPGPU-Sim uArch: core:  0, cta: 2 initialized @(3,47363)
GPGPU-Sim uArch: core:  1, cta: 2 initialized @(3,47363)
GPGPU-Sim uArch: core:  2, cta: 2 initialized @(3,47363)
GPGPU-Sim uArch: core:  3, cta: 2 initialized @(3,47363)
GPGPU-Sim uArch: core:  4, cta: 2 initialized @(3,47363)
GPGPU-Sim uArch: core:  5, cta: 2 initialized @(3,47363)
GPGPU-Sim uArch: core:  6, cta: 2 initialized @(3,47363)
GPGPU-Sim uArch: core:  7, cta: 2 initialized @(3,47363)
GPGPU-Sim uArch: core:  8, cta: 2 initialized @(3,47363)
GPGPU-Sim uArch: core:  9, cta: 2 initialized @(3,47363)
GPGPU-Sim uArch: core: 10, cta: 2 initialized @(3,47363)
GPGPU-Sim uArch: core: 11, cta: 2 initialized @(3,47363)
GPGPU-Sim uArch: core: 12, cta: 3 initialized @(4,47363)
GPGPU-Sim uArch: core: 13, cta: 3 initialized @(4,47363)
GPGPU-Sim uArch: core:  0, cta: 3 initialized @(4,47363)
GPGPU-Sim uArch: core:  1, cta: 3 initialized @(4,47363)
GPGPU-Sim uArch: core:  2, cta: 3 initialized @(4,47363)
GPGPU-Sim uArch: core:  3, cta: 3 initialized @(4,47363)
GPGPU-Sim uArch: core:  4, cta: 3 initialized @(4,47363)
GPGPU-Sim uArch: core:  5, cta: 3 initialized @(4,47363)
GPGPU-Sim uArch: core:  6, cta: 3 initialized @(4,47363)
GPGPU-Sim uArch: core:  7, cta: 3 initialized @(4,47363)
GPGPU-Sim uArch: core:  8, cta: 3 initialized @(4,47363)
GPGPU-Sim uArch: core:  9, cta: 3 initialized @(4,47363)
GPGPU-Sim uArch: core: 10, cta: 3 initialized @(4,47363)
GPGPU-Sim uArch: core: 11, cta: 3 initialized @(4,47363)
GPGPU-Sim uArch: core: 12, cta: 4 initialized @(5,47363)
GPGPU-Sim uArch: core: 13, cta: 4 initialized @(5,47363)
GPGPU-Sim uArch: core:  0, cta: 4 initialized @(5,47363)
GPGPU-Sim uArch: core:  1, cta: 4 initialized @(5,47363)
GPGPU-Sim uArch: core:  2, cta: 4 initialized @(5,47363)
GPGPU-Sim uArch: core:  3, cta: 4 initialized @(5,47363)
GPGPU-Sim uArch: core:  4, cta: 4 initialized @(5,47363)
GPGPU-Sim uArch: core:  5, cta: 4 initialized @(5,47363)
GPGPU-Sim uArch: core:  6, cta: 4 initialized @(5,47363)
GPGPU-Sim uArch: core:  7, cta: 4 initialized @(5,47363)
GPGPU-Sim uArch: core:  8, cta: 4 initialized @(5,47363)
GPGPU-Sim uArch: core:  9, cta: 4 initialized @(5,47363)
GPGPU-Sim uArch: core: 10, cta: 4 initialized @(5,47363)
GPGPU-Sim uArch: core: 11, cta: 4 initialized @(5,47363)
GPGPU-Sim uArch: core: 12, cta: 5 initialized @(6,47363)
GPGPU-Sim uArch: core: 13, cta: 5 initialized @(6,47363)
GPGPU-Sim uArch: core:  0, cta: 5 initialized @(6,47363)
GPGPU-Sim uArch: core:  1, cta: 5 initialized @(6,47363)
GPGPU-Sim uArch: core:  2, cta: 5 initialized @(6,47363)
GPGPU-Sim uArch: core:  3, cta: 5 initialized @(6,47363)
GPGPU-Sim uArch: core:  4, cta: 5 initialized @(6,47363)
GPGPU-Sim uArch: core:  5, cta: 5 initialized @(6,47363)
GPGPU-Sim uArch: core:  6, cta: 5 initialized @(6,47363)
GPGPU-Sim uArch: core:  7, cta: 5 initialized @(6,47363)
GPGPU-Sim uArch: core:  8, cta: 5 initialized @(6,47363)
GPGPU-Sim uArch: core:  9, cta: 5 initialized @(6,47363)
GPGPU-Sim uArch: core: 10, cta: 5 initialized @(6,47363)
GPGPU-Sim uArch: core: 11, cta: 5 initialized @(6,47363)
