

        *** GPGPU-Sim Simulator Version 3.2.2  [build 17315] ***


GPGPU-Sim PTX: simulation mode 0 (can change with PTX_SIM_MODE_FUNC environment variable:
               1=functional simulation only, 0=detailed performance simulator)
GPGPU-Sim: Configuration options:

-network_mode                           1 # Interconnection network mode
-inter_config_file   config_fermi_islip.icnt # Interconnection network config file
-gpgpu_ptx_use_cuobjdump                    1 # Use cuobjdump to extract ptx and sass from binaries
-gpgpu_experimental_lib_support                    0 # Try to extract code from cuda libraries [Broken because of unknown cudaGetExportTable]
-gpgpu_ptx_convert_to_ptxplus                    1 # Convert SASS (native ISA) to ptxplus and run ptxplus
-gpgpu_ptx_force_max_capability                   20 # Force maximum compute capability
-gpgpu_ptx_inst_debug_to_file                    0 # Dump executed instructions' debug information to file
-gpgpu_ptx_inst_debug_file       inst_debug.txt # Executed instructions' debug output file
-gpgpu_ptx_inst_debug_thread_uid                    1 # Thread UID for executed instructions' debug output
-gpgpu_simd_model                       1 # 1 = post-dominator
-gpgpu_shader_core_pipeline              1536:32 # shader core pipeline config, i.e., {<nthread>:<warpsize>}
-gpgpu_tex_cache:l1  4:128:24,L:R:m:N,F:128:4,128:2 # per-shader L1 texture cache  (READ-ONLY) config  {<nsets>:<bsize>:<assoc>,<rep>:<wr>:<alloc>:<wr_alloc>,<mshr>:<N>:<merge>,<mq>:<rf>}
-gpgpu_const_cache:l1 64:64:2,L:R:f:N,A:2:32,4 # per-shader L1 constant memory cache  (READ-ONLY) config  {<nsets>:<bsize>:<assoc>,<rep>:<wr>:<alloc>:<wr_alloc>,<mshr>:<N>:<merge>,<mq>} 
-gpgpu_cache:il1     4:128:4,L:R:f:N,A:2:32,4 # shader L1 instruction cache config  {<nsets>:<bsize>:<assoc>,<rep>:<wr>:<alloc>:<wr_alloc>,<mshr>:<N>:<merge>,<mq>} 
-gpgpu_cache:dl1     32:128:4,L:L:m:N,A:32:8,8 # per-shader L1 data cache config  {<nsets>:<bsize>:<assoc>,<rep>:<wr>:<alloc>:<wr_alloc>,<mshr>:<N>:<merge>,<mq> | none}
-gpgpu_cache:dl1PrefL1                 none # per-shader L1 data cache config  {<nsets>:<bsize>:<assoc>,<rep>:<wr>:<alloc>:<wr_alloc>,<mshr>:<N>:<merge>,<mq> | none}
-gpgpu_cache:dl1PreShared                 none # per-shader L1 data cache config  {<nsets>:<bsize>:<assoc>,<rep>:<wr>:<alloc>:<wr_alloc>,<mshr>:<N>:<merge>,<mq> | none}
-gmem_skip_L1D                          0 # global memory access skip L1D cache (implements -Xptxas -dlcm=cg, default=no skip)
-gpgpu_perfect_mem                      0 # enable perfect memory mode (no cache miss)
-n_regfile_gating_group                    4 # group of lanes that should be read/written together)
-gpgpu_clock_gated_reg_file                    0 # enable clock gated reg file for power calculations
-gpgpu_clock_gated_lanes                    0 # enable clock gated lanes for power calculations
-gpgpu_shader_registers                32768 # Number of registers per shader core. Limits number of concurrent CTAs. (default 8192)
-gpgpu_shader_cta                       8 # Maximum number of concurrent CTAs in shader (default 8)
-gpgpu_n_clusters                      14 # number of processing clusters
-gpgpu_n_cores_per_cluster                    1 # number of simd cores per cluster
-gpgpu_n_cluster_ejection_buffer_size                    8 # number of packets in ejection buffer
-gpgpu_n_ldst_response_buffer_size                    2 # number of response packets in ld/st unit ejection buffer
-gpgpu_shmem_size                   16384 # Size of shared memory per shader core (default 16kB)
-gpgpu_shmem_size                   16384 # Size of shared memory per shader core (default 16kB)
-gpgpu_shmem_size_PrefL1                16384 # Size of shared memory per shader core (default 16kB)
-gpgpu_shmem_size_PrefShared                16384 # Size of shared memory per shader core (default 16kB)
-gpgpu_shmem_num_banks                   32 # Number of banks in the shared memory in each shader core (default 16)
-gpgpu_shmem_limited_broadcast                    0 # Limit shared memory to do one broadcast per cycle (default on)
-gpgpu_shmem_warp_parts                    1 # Number of portions a warp is divided into for shared memory bank conflict check 
-gpgpu_warpdistro_shader                   -1 # Specify which shader core to collect the warp size distribution from
-gpgpu_warp_issue_shader                    0 # Specify which shader core to collect the warp issue distribution from
-gpgpu_local_mem_map                    1 # Mapping from local memory space address to simulated GPU physical address space (default = enabled)
-gpgpu_num_reg_banks                   16 # Number of register banks (default = 8)
-gpgpu_reg_bank_use_warp_id                    0 # Use warp ID in mapping registers to banks (default = off)
-gpgpu_operand_collector_num_units_sp                    6 # number of collector units (default = 4)
-gpgpu_operand_collector_num_units_sfu                    8 # number of collector units (default = 4)
-gpgpu_operand_collector_num_units_mem                    2 # number of collector units (default = 2)
-gpgpu_operand_collector_num_units_gen                    0 # number of collector units (default = 0)
-gpgpu_operand_collector_num_in_ports_sp                    2 # number of collector unit in ports (default = 1)
-gpgpu_operand_collector_num_in_ports_sfu                    1 # number of collector unit in ports (default = 1)
-gpgpu_operand_collector_num_in_ports_mem                    1 # number of collector unit in ports (default = 1)
-gpgpu_operand_collector_num_in_ports_gen                    0 # number of collector unit in ports (default = 0)
-gpgpu_operand_collector_num_out_ports_sp                    2 # number of collector unit in ports (default = 1)
-gpgpu_operand_collector_num_out_ports_sfu                    1 # number of collector unit in ports (default = 1)
-gpgpu_operand_collector_num_out_ports_mem                    1 # number of collector unit in ports (default = 1)
-gpgpu_operand_collector_num_out_ports_gen                    0 # number of collector unit in ports (default = 0)
-gpgpu_coalesce_arch                   13 # Coalescing arch (default = 13, anything else is off for now)
-gpgpu_num_sched_per_core                    2 # Number of warp schedulers per core
-gpgpu_max_insn_issue_per_warp                    1 # Max number of instructions that can be issued per warp in one cycle by scheduler
-gpgpu_simt_core_sim_order                    1 # Select the simulation order of cores in a cluster (0=Fix, 1=Round-Robin)
-gpgpu_pipeline_widths        2,1,1,2,1,1,2 # Pipeline widths ID_OC_SP,ID_OC_SFU,ID_OC_MEM,OC_EX_SP,OC_EX_SFU,OC_EX_MEM,EX_WB
-gpgpu_num_sp_units                     2 # Number of SP units (default=1)
-gpgpu_num_sfu_units                    1 # Number of SF units (default=1)
-gpgpu_num_mem_units                    1 # Number if ldst units (default=1) WARNING: not hooked up to anything
-gpgpu_scheduler                      lrr # Scheduler configuration: < lrr | gto | two_level_active > If two_level_active:<num_active_warps>:<inner_prioritization>:<outer_prioritization>For complete list of prioritization values see shader.h enum scheduler_prioritization_typeDefault: gto
-gpgpu_dram_scheduler                    1 # 0 = fifo, 1 = FR-FCFS (defaul)
-gpgpu_dram_partition_queues              8:8:8:8 # i2$:$2d:d2$:$2i
-l2_ideal                               0 # Use a ideal L2 cache that always hit
-gpgpu_cache:dl2     64:128:8,L:B:m:W,A:32:4,4:0,32 # unified banked L2 data cache config  {<nsets>:<bsize>:<assoc>,<rep>:<wr>:<alloc>:<wr_alloc>,<mshr>:<N>:<merge>,<mq>}
-gpgpu_cache:dl2_texture_only                    0 # L2 cache used for texture only
-gpgpu_n_mem                            6 # number of memory modules (e.g. memory controllers) in gpu
-gpgpu_n_sub_partition_per_mchannel                    2 # number of memory subpartition in each memory module
-gpgpu_n_mem_per_ctrlr                    2 # number of memory chips per memory controller
-gpgpu_memlatency_stat                    0 # track and display latency statistics 0x2 enables MC, 0x4 enables queue logs
-gpgpu_frfcfs_dram_sched_queue_size                   16 # 0 = unlimited (default); # entries per chip
-gpgpu_dram_return_queue_size                  114 # 0 = unlimited (default); # entries per chip
-gpgpu_dram_buswidth                    4 # default = 4 bytes (8 bytes per cycle at DDR)
-gpgpu_dram_burst_length                    8 # Burst length of each DRAM request (default = 4 data bus cycle)
-dram_data_command_freq_ratio                    4 # Frequency ratio between DRAM data bus and command bus (default = 2 times, i.e. DDR)
-gpgpu_dram_timing_opt nbk=16:CCD=2:RRD=6:RCD=12:RAS=28:RP=12:RC=40: CL=12:WL=4:CDLR=5:WR=12:nbkgrp=4:CCDL=3:RTPL=2 # DRAM timing parameters = {nbk:tCCD:tRRD:tRCD:tRAS:tRP:tRC:CL:WL:tCDLR:tWR:nbkgrp:tCCDL:tRTPL}
-rop_latency                          120 # ROP queue latency (default 85)
-dram_latency                         100 # DRAM latency (default 30)
-gpgpu_mem_addr_mapping dramid@8;00000000.00000000.00000000.00000000.0000RRRR.RRRRRRRR.BBBCCCCB.CCSSSSSS # mapping memory address to dram model {dramid@<start bit>;<memory address map>}
-gpgpu_mem_addr_test                    0 # run sweep test to check address mapping for aliased address
-gpgpu_mem_address_mask                    1 # 0 = old addressing mask, 1 = new addressing mask, 2 = new add. mask + flipped bank sel and chip sel bits
-gpuwattch_xml_file         gpuwattch.xml # GPUWattch XML file
-power_simulation_enabled                    0 # Turn on power simulator (1=On, 0=Off)
-power_per_cycle_dump                    0 # Dump detailed power output each cycle
-power_trace_enabled                    0 # produce a file for the power trace (1=On, 0=Off)
-power_trace_zlevel                     6 # Compression level of the power trace output log (0=no comp, 9=highest)
-steady_power_levels_enabled                    0 # produce a file for the steady power levels (1=On, 0=Off)
-steady_state_definition                  8:4 # allowed deviation:number of samples
-gpgpu_max_cycle                        0 # terminates gpu simulation early (0 = no limit)
-gpgpu_max_insn                         0 # terminates gpu simulation early (0 = no limit)
-gpgpu_max_cta                          0 # terminates gpu simulation early (0 = no limit)
-gpgpu_runtime_stat             5000000:0 # display runtime statistics such as dram utilization {<freq>:<flag>}
-liveness_message_freq                    1 # Minimum number of seconds between simulation liveness messages (0 = always print)
-gpgpu_flush_l1_cache                    0 # Flush L1 cache at the end of each kernel call
-gpgpu_flush_l2_cache                    0 # Flush L2 cache at the end of each kernel call
-gpgpu_deadlock_detect                    1 # Stop the simulation at deadlock (1=on (default), 0=off)
-gpgpu_ptx_instruction_classification                    0 # if enabled will classify ptx instruction types per kernel (Max 255 kernels now)
-gpgpu_ptx_sim_mode                     0 # Select between Performance (default) or Functional simulation (1)
-gpgpu_clock_domains 575.0:575.0:575.0:750.0 # Clock Domain Frequencies in MhZ {<Core Clock>:<ICNT Clock>:<L2 Clock>:<DRAM Clock>}
-gpgpu_max_concurrent_kernel                    8 # maximum kernels that can run concurrently on GPU
-gpgpu_cflog_interval                    0 # Interval between each snapshot in control flow logger
-visualizer_enabled                     0 # Turn on visualizer output (1=On, 0=Off)
-visualizer_outputfile                 NULL # Specifies the output log file for visualizer
-visualizer_zlevel                      6 # Compression level of the visualizer output log (0=no comp, 9=highest)
-trace_enabled                          0 # Turn on traces
-trace_components                    none # comma seperated list of traces to enable. Complete list found in trace_streams.tup. Default none
-trace_sampling_core                    0 # The core which is printed using CORE_DPRINTF. Default 0
-trace_sampling_memory_partition                   -1 # The memory partition which is printed using MEMPART_DPRINTF. Default -1 (i.e. all)
-enable_ptx_file_line_stats                    0 # Turn on PTX source line statistic profiling. (1 = On)
-ptx_line_stats_filename gpgpu_inst_stats.txt # Output file for PTX source line statistics.
-save_embedded_ptx                      0 # saves ptx files embedded in binary as <n>.ptx
-keep                                   0 # keep intermediate files created by GPGPU-Sim when interfacing with external programs
-gpgpu_ptx_save_converted_ptxplus                    1 # Saved converted ptxplus to a file
-ptx_opcode_latency_int         4,13,4,5,145 # Opcode latencies for integers <ADD,MAX,MUL,MAD,DIV>Default 1,1,19,25,145
-ptx_opcode_latency_fp          4,13,4,5,39 # Opcode latencies for single precision floating points <ADD,MAX,MUL,MAD,DIV>Default 1,1,1,1,30
-ptx_opcode_latency_dp         8,19,8,8,330 # Opcode latencies for double precision floating points <ADD,MAX,MUL,MAD,DIV>Default 8,8,8,8,335
-ptx_opcode_initiation_int            1,2,2,1,8 # Opcode initiation intervals for integers <ADD,MAX,MUL,MAD,DIV>Default 1,1,4,4,32
-ptx_opcode_initiation_fp            1,2,1,1,4 # Opcode initiation intervals for single precision floating points <ADD,MAX,MUL,MAD,DIV>Default 1,1,1,1,5
-ptx_opcode_initiation_dp         8,16,8,8,130 # Opcode initiation intervals for double precision floating points <ADD,MAX,MUL,MAD,DIV>Default 8,8,8,8,130
DRAM Timing Options:
nbk                                    16 # number of banks
CCD                                     2 # column to column delay
RRD                                     6 # minimal delay between activation of rows in different banks
RCD                                    12 # row to column delay
RAS                                    28 # time needed to activate row
RP                                     12 # time needed to precharge (deactivate) row
RC                                     40 # row cycle time
CDLR                                    5 # switching from write to read (changes tWTR)
WR                                     12 # last data-in to row precharge
CL                                     12 # CAS latency
WL                                      4 # Write latency
nbkgrp                                  4 # number of bank groups
CCDL                                    3 # column to column delay between accesses to different bank groups
RTPL                                    2 # read to precharge delay between accesses to different bank groups
Total number of memory sub partition = 12
addr_dec_mask[CHIP]  = 0000000000000000 	high:64 low:0
addr_dec_mask[BK]    = 000000000000e100 	high:16 low:8
addr_dec_mask[ROW]   = 000000000fff0000 	high:28 low:16
addr_dec_mask[COL]   = 0000000000001eff 	high:13 low:0
addr_dec_mask[BURST] = 000000000000003f 	high:6 low:0
sub_partition_id_mask = 0000000000000100
GPGPU-Sim uArch: clock freqs: 575000000.000000:575000000.000000:575000000.000000:750000000.000000
GPGPU-Sim uArch: clock periods: 0.00000000173913043478:0.00000000173913043478:0.00000000173913043478:0.00000000133333333333
*** Initializing Memory Statistics ***
GPGPU-Sim uArch: interconnect node map (shaderID+MemID to icntID)
GPGPU-Sim uArch: Memory nodes ID start from index: 14
GPGPU-Sim uArch:    0   1   2   3   4
GPGPU-Sim uArch:    5   6   7   8   9
GPGPU-Sim uArch:   10  11  12  13  14
GPGPU-Sim uArch:   15  16  17  18  19
GPGPU-Sim uArch:   20  21  22  23  24
GPGPU-Sim uArch:   25
GPGPU-Sim uArch: interconnect node reverse map (icntID to shaderID+MemID)
GPGPU-Sim uArch: Memory nodes start from ID: 14
GPGPU-Sim uArch:    0   1   2   3   4
GPGPU-Sim uArch:    5   6   7   8   9
GPGPU-Sim uArch:   10  11  12  13  14
GPGPU-Sim uArch:   15  16  17  18  19
GPGPU-Sim uArch:   20  21  22  23  24
GPGPU-Sim uArch:   25
6c52cc5252f2b80c99fb6f8cff8277d8  /home/vishwesh/Desktop/ToRakesh/Benchmarks/rodinia_2.4/cuda/hotspot/hotspot
GPGPU-Sim uArch: performance model initialization complete.
GPGPU-Sim PTX: __cudaRegisterFatBinary, fat_cubin_handle = 1, filename=hotspot.cu
self exe links to: /home/vishwesh/Desktop/ToRakesh/Benchmarks/rodinia_2.4/cuda/hotspot/hotspot
Running md5sum using "md5sum /home/vishwesh/Desktop/ToRakesh/Benchmarks/rodinia_2.4/cuda/hotspot/hotspot "
Running cuobjdump using "$CUDA_INSTALL_PATH/bin/cuobjdump -ptx -elf -sass /home/vishwesh/Desktop/ToRakesh/Benchmarks/rodinia_2.4/cuda/hotspot/hotspot > _cuobjdump_complete_output_6SFmSc"
Parsing file _cuobjdump_complete_output_6SFmSc
######### cuobjdump parser ########
## Adding new section PTX
Adding ptx filename: _cuobjdump_1.ptx
Adding arch: sm_10
Adding identifier: hotspot.cu
## Adding new section ELF
Adding arch: sm_10
Adding identifier: hotspot.cu
Done parsing!!!
GPGPU-Sim: WARNING: Capability >= 20 are not supported in PTXPlus
	Setting forced_max_capability to 19
GPGPU-Sim PTX: __cudaRegisterFunction _Z14calculate_tempiPfS_S_iiiiffffff : hostFun 0x0x401bb9, fat_cubin_handle = 1
GPGPU-Sim PTX: converting EMBEDDED .ptx file to ptxplus 
RUNNING cuobjdump_to_ptxplus ...
Parsing .elf file _cuobjdump_1.elf
()


Finished parsing .elf file _cuobjdump_1.elf
Parsing .ptx file _cuobjdump_1.ptx
Finished parsing .ptx file _cuobjdump_1.ptx
Parsing .sass file _cuobjdump_1.sass
Finished parsing .sass file _cuobjdump_1.sass
DONE. 
GPGPU-Sim PTX: calling cuobjdump_to_ptxplus
commandline: $GPGPUSIM_ROOT/build/$GPGPUSIM_CONFIG/cuobjdump_to_ptxplus/cuobjdump_to_ptxplus _cuobjdump_1.ptx _cuobjdump_1.sass _cuobjdump_1.elf _ptxplus_tkqnQy
GPGPU-Sim PTX: DONE converting EMBEDDED .ptx file to ptxplus 
GPGPU-Sim PTX: allocating constant region for "constant1_Z14calculate_tempiPfS_S_iiiiffffff" from 0x100 to 0x114 (global memory space) 1
GPGPU-Sim PTX: PTX uses two scalar type intruction with literal operand.
GPGPU-Sim PTX: instruction assembly for function '_Z14calculate_tempiPfS_S_iiiiffffff'...   done.
GPGPU-Sim PTX: finding reconvergence points for '_Z14calculate_tempiPfS_S_iiiiffffff'...
GPGPU-Sim PTX: Warning detected predicated return/exit.
GPGPU-Sim PTX: Finding dominators for '_Z14calculate_tempiPfS_S_iiiiffffff'...
GPGPU-Sim PTX: Finding immediate dominators for '_Z14calculate_tempiPfS_S_iiiiffffff'...
GPGPU-Sim PTX: Finding postdominators for '_Z14calculate_tempiPfS_S_iiiiffffff'...
GPGPU-Sim PTX: Finding immediate postdominators for '_Z14calculate_tempiPfS_S_iiiiffffff'...
GPGPU-Sim PTX: pre-decoding instructions for '_Z14calculate_tempiPfS_S_iiiiffffff'...
GPGPU-Sim PTX: reconvergence points for _Z14calculate_tempiPfS_S_iiiiffffff...
GPGPU-Sim PTX:  1 (potential) branch divergence @  PC=0x060 (_1.ptx:55) @$p0.sf bra l0x00000158;
GPGPU-Sim PTX:    immediate post dominator      @  PC=0x158 (_1.ptx:87) l0x00000158: nop;
GPGPU-Sim PTX:  2 (potential) branch divergence @  PC=0x078 (_1.ptx:58) @$p0.ne bra l0x00000158;
GPGPU-Sim PTX:    immediate post dominator      @  PC=0x158 (_1.ptx:87) l0x00000158: nop;
GPGPU-Sim PTX:  3 (potential) branch divergence @  PC=0x0c0 (_1.ptx:67) @$p0.sf bra l0x00000158;
GPGPU-Sim PTX:    immediate post dominator      @  PC=0x158 (_1.ptx:87) l0x00000158: nop;
GPGPU-Sim PTX:  4 (potential) branch divergence @  PC=0x0d8 (_1.ptx:70) @$p0.ne bra l0x00000158;
GPGPU-Sim PTX:    immediate post dominator      @  PC=0x158 (_1.ptx:87) l0x00000158: nop;
GPGPU-Sim PTX:  5 (potential) branch divergence @  PC=0x170 (_1.ptx:90) @$p0.ne bra l0x00000530;
GPGPU-Sim PTX:    immediate post dominator      @  PC=0x558 (_1.ptx:218) l0x00000558: @$p0.eq retp;
GPGPU-Sim PTX:  6 (potential) branch divergence @  PC=0x308 (_1.ptx:143) @$p0.ne bra l0x000004a8;
GPGPU-Sim PTX:    immediate post dominator      @  PC=0x4a8 (_1.ptx:196) l0x000004a8: nop;
GPGPU-Sim PTX:  7 (potential) branch divergence @  PC=0x320 (_1.ptx:146) @$p0.ne bra l0x000004a8;
GPGPU-Sim PTX:    immediate post dominator      @  PC=0x4a8 (_1.ptx:196) l0x000004a8: nop;
GPGPU-Sim PTX:  8 (potential) branch divergence @  PC=0x330 (_1.ptx:148) @$p0.ne bra l0x000004a8;
GPGPU-Sim PTX:    immediate post dominator      @  PC=0x4a8 (_1.ptx:196) l0x000004a8: nop;
GPGPU-Sim PTX:  9 (potential) branch divergence @  PC=0x340 (_1.ptx:150) @$p0.ne bra l0x000004a8;
GPGPU-Sim PTX:    immediate post dominator      @  PC=0x4a8 (_1.ptx:196) l0x000004a8: nop;
GPGPU-Sim PTX: 10 (potential) branch divergence @  PC=0x350 (_1.ptx:152) @$p0.ne bra l0x000004a8;
GPGPU-Sim PTX:    immediate post dominator      @  PC=0x4a8 (_1.ptx:196) l0x000004a8: nop;
GPGPU-Sim PTX: 11 (potential) branch divergence @  PC=0x360 (_1.ptx:154) @$p0.ne bra l0x000004a8;
GPGPU-Sim PTX:    immediate post dominator      @  PC=0x4a8 (_1.ptx:196) l0x000004a8: nop;
GPGPU-Sim PTX: 12 (potential) branch divergence @  PC=0x370 (_1.ptx:156) @$p0.ne bra l0x000004a8;
GPGPU-Sim PTX:    immediate post dominator      @  PC=0x4a8 (_1.ptx:196) l0x000004a8: nop;
GPGPU-Sim PTX: 13 (potential) branch divergence @  PC=0x380 (_1.ptx:158) @$p0.ne bra l0x000004a8;
GPGPU-Sim PTX:    immediate post dominator      @  PC=0x4a8 (_1.ptx:196) l0x000004a8: nop;
GPGPU-Sim PTX: 14 (potential) branch divergence @  PC=0x4c0 (_1.ptx:199) @$p0.ne bra l0x00000548;
GPGPU-Sim PTX:    immediate post dominator      @  PC=0x558 (_1.ptx:218) l0x00000558: @$p0.eq retp;
GPGPU-Sim PTX: 15 (potential) branch divergence @  PC=0x520 (_1.ptx:211) @$p1.ne bra l0x000002e8;
GPGPU-Sim PTX:    immediate post dominator      @  PC=0x558 (_1.ptx:218) l0x00000558: @$p0.eq retp;
GPGPU-Sim PTX: 16 (potential) branch divergence @  PC=0x528 (_1.ptx:212) bra l0x00000558;
GPGPU-Sim PTX:    immediate post dominator      @  PC=0x558 (_1.ptx:218) l0x00000558: @$p0.eq retp;
GPGPU-Sim PTX: 17 (potential) branch divergence @  PC=0x540 (_1.ptx:215) bra l0x00000558;
GPGPU-Sim PTX:    immediate post dominator      @  PC=0x558 (_1.ptx:218) l0x00000558: @$p0.eq retp;
GPGPU-Sim PTX: 18 (potential) branch divergence @  PC=0x550 (_1.ptx:217) bra l0x00000558;
GPGPU-Sim PTX:    immediate post dominator      @  PC=0x558 (_1.ptx:218) l0x00000558: @$p0.eq retp;
GPGPU-Sim PTX: ... end of reconvergence points for _Z14calculate_tempiPfS_S_iiiiffffff
GPGPU-Sim PTX: ... done pre-decoding instructions for '_Z14calculate_tempiPfS_S_iiiiffffff'.
GPGPU-Sim PTX: finished parsing EMBEDDED .ptx file _1.ptx
Adding _cuobjdump_1.ptx with cubin handle 1
GPGPU-Sim PTX: extracting embedded .ptx to temporary file "_ptx_hP7fQU"
Running: cat _ptx_hP7fQU | sed 's/.version 1.5/.version 1.4/' | sed 's/, texmode_independent//' | sed 's/\(\.extern \.const\[1\] .b8 \w\+\)\[\]/\1\[1\]/' | sed 's/const\[.\]/const\[0\]/g' > _ptx2_YuBbQg
GPGPU-Sim PTX: generating ptxinfo using "$CUDA_INSTALL_PATH/bin/ptxas --gpu-name=sm_20 -v _ptx2_YuBbQg --output-file  /dev/null 2> _ptx_hP7fQUinfo"
GPGPU-Sim PTX: Kernel '_Z14calculate_tempiPfS_S_iiiiffffff' : regs=35, lmem=0, smem=3072, cmem=104
GPGPU-Sim PTX: removing ptxinfo using "rm -f _ptx_hP7fQU _ptx2_YuBbQg _ptx_hP7fQUinfo"
GPGPU-Sim PTX: loading globals with explicit initializers... 
GPGPU-Sim PTX: finished loading globals (0 bytes total).
GPGPU-Sim PTX: loading constants with explicit initializers...  done.
pyramidHeight: 2
gridSize: [512, 512]
border:[2, 2]
blockGrid:[43, 43]
targetBlock:[12, 12]
Start computing the transient temperature

GPGPU-Sim PTX: cudaLaunch for 0x0x401bb9 (mode=performance simulation) on stream 0
GPGPU-Sim PTX: pushing kernel '_Z14calculate_tempiPfS_S_iiiiffffff' to stream 0, gridDim= (43,43,1) blockDim = (16,16,1) 
kernel '_Z14calculate_tempiPfS_S_iiiiffffff' transfer to GPU hardware scheduler
GPGPU-Sim uArch: Shader 1 bind to kernel 1 '_Z14calculate_tempiPfS_S_iiiiffffff'
GPGPU-Sim uArch: CTA/core = 3, limited by: regs
GPGPU-Sim uArch: core:  1, cta: 0 initialized @(1,0)
GPGPU-Sim uArch: Shader 2 bind to kernel 1 '_Z14calculate_tempiPfS_S_iiiiffffff'
GPGPU-Sim uArch: core:  2, cta: 0 initialized @(1,0)
GPGPU-Sim uArch: Shader 3 bind to kernel 1 '_Z14calculate_tempiPfS_S_iiiiffffff'
GPGPU-Sim uArch: core:  3, cta: 0 initialized @(1,0)
GPGPU-Sim uArch: Shader 4 bind to kernel 1 '_Z14calculate_tempiPfS_S_iiiiffffff'
GPGPU-Sim uArch: core:  4, cta: 0 initialized @(1,0)
GPGPU-Sim uArch: Shader 5 bind to kernel 1 '_Z14calculate_tempiPfS_S_iiiiffffff'
GPGPU-Sim uArch: core:  5, cta: 0 initialized @(1,0)
GPGPU-Sim uArch: Shader 6 bind to kernel 1 '_Z14calculate_tempiPfS_S_iiiiffffff'
GPGPU-Sim uArch: core:  6, cta: 0 initialized @(1,0)
GPGPU-Sim uArch: Shader 7 bind to kernel 1 '_Z14calculate_tempiPfS_S_iiiiffffff'
GPGPU-Sim uArch: core:  7, cta: 0 initialized @(1,0)
GPGPU-Sim uArch: Shader 8 bind to kernel 1 '_Z14calculate_tempiPfS_S_iiiiffffff'
GPGPU-Sim uArch: core:  8, cta: 0 initialized @(1,0)
GPGPU-Sim uArch: Shader 9 bind to kernel 1 '_Z14calculate_tempiPfS_S_iiiiffffff'
GPGPU-Sim uArch: core:  9, cta: 0 initialized @(1,0)
GPGPU-Sim uArch: Shader 10 bind to kernel 1 '_Z14calculate_tempiPfS_S_iiiiffffff'
GPGPU-Sim uArch: core: 10, cta: 0 initialized @(1,0)
GPGPU-Sim uArch: Shader 11 bind to kernel 1 '_Z14calculate_tempiPfS_S_iiiiffffff'
GPGPU-Sim uArch: core: 11, cta: 0 initialized @(1,0)
GPGPU-Sim uArch: Shader 12 bind to kernel 1 '_Z14calculate_tempiPfS_S_iiiiffffff'
GPGPU-Sim uArch: core: 12, cta: 0 initialized @(1,0)
GPGPU-Sim uArch: Shader 13 bind to kernel 1 '_Z14calculate_tempiPfS_S_iiiiffffff'
GPGPU-Sim uArch: core: 13, cta: 0 initialized @(1,0)
GPGPU-Sim uArch: Shader 0 bind to kernel 1 '_Z14calculate_tempiPfS_S_iiiiffffff'
GPGPU-Sim uArch: core:  0, cta: 0 initialized @(1,0)
GPGPU-Sim uArch: core:  1, cta: 1 initialized @(2,0)
GPGPU-Sim uArch: core:  2, cta: 1 initialized @(2,0)
GPGPU-Sim uArch: core:  3, cta: 1 initialized @(2,0)
GPGPU-Sim uArch: core:  4, cta: 1 initialized @(2,0)
GPGPU-Sim uArch: core:  5, cta: 1 initialized @(2,0)
GPGPU-Sim uArch: core:  6, cta: 1 initialized @(2,0)
GPGPU-Sim uArch: core:  7, cta: 1 initialized @(2,0)
GPGPU-Sim uArch: core:  8, cta: 1 initialized @(2,0)
GPGPU-Sim uArch: core:  9, cta: 1 initialized @(2,0)
GPGPU-Sim uArch: core: 10, cta: 1 initialized @(2,0)
GPGPU-Sim uArch: core: 11, cta: 1 initialized @(2,0)
GPGPU-Sim uArch: core: 12, cta: 1 initialized @(2,0)
GPGPU-Sim uArch: core: 13, cta: 1 initialized @(2,0)
GPGPU-Sim uArch: core:  0, cta: 1 initialized @(2,0)
GPGPU-Sim uArch: core:  1, cta: 2 initialized @(3,0)
GPGPU-Sim uArch: core:  2, cta: 2 initialized @(3,0)
GPGPU-Sim uArch: core:  3, cta: 2 initialized @(3,0)
GPGPU-Sim uArch: core:  4, cta: 2 initialized @(3,0)
GPGPU-Sim uArch: core:  5, cta: 2 initialized @(3,0)
GPGPU-Sim uArch: core:  6, cta: 2 initialized @(3,0)
GPGPU-Sim uArch: core:  7, cta: 2 initialized @(3,0)
GPGPU-Sim uArch: core:  8, cta: 2 initialized @(3,0)
GPGPU-Sim uArch: core:  9, cta: 2 initialized @(3,0)
GPGPU-Sim uArch: core: 10, cta: 2 initialized @(3,0)
GPGPU-Sim uArch: core: 11, cta: 2 initialized @(3,0)
GPGPU-Sim uArch: core: 12, cta: 2 initialized @(3,0)
GPGPU-Sim uArch: core: 13, cta: 2 initialized @(3,0)
GPGPU-Sim uArch: core:  0, cta: 2 initialized @(3,0)
GPGPU-Sim PTX: WARNING (_1.ptx:89) ** reading undefined register '$r124' (cuid:0). Setting to 0X00000000. This is okay if you are simulating the native ISA
GPGPU-Sim uArch: Shader 4 finished CTA #2 (7286,0), 2 CTAs running
GPGPU-Sim uArch: core:  4, cta: 2 initialized @(7287,0)
GPGPU-Sim uArch: Shader 4 finished CTA #0 (7377,0), 2 CTAs running
GPGPU-Sim uArch: core:  4, cta: 0 initialized @(7378,0)
GPGPU-Sim uArch: Shader 4 finished CTA #1 (7387,0), 2 CTAs running
GPGPU-Sim uArch: core:  4, cta: 1 initialized @(7388,0)
GPGPU-Sim uArch: Shader 1 finished CTA #0 (7409,0), 2 CTAs running
GPGPU-Sim uArch: core:  1, cta: 0 initialized @(7410,0)
GPGPU-Sim uArch: Shader 8 finished CTA #2 (7418,0), 2 CTAs running
GPGPU-Sim uArch: core:  8, cta: 2 initialized @(7419,0)
GPGPU-Sim uArch: Shader 8 finished CTA #0 (7447,0), 2 CTAs running
GPGPU-Sim uArch: core:  8, cta: 0 initialized @(7448,0)
GPGPU-Sim uArch: Shader 9 finished CTA #2 (7461,0), 2 CTAs running
GPGPU-Sim uArch: core:  9, cta: 2 initialized @(7462,0)
GPGPU-Sim uArch: Shader 9 finished CTA #0 (7478,0), 2 CTAs running
GPGPU-Sim uArch: core:  9, cta: 0 initialized @(7479,0)
GPGPU-Sim uArch: Shader 5 finished CTA #2 (7492,0), 2 CTAs running
GPGPU-Sim uArch: core:  5, cta: 2 initialized @(7493,0)
GPGPU-Sim uArch: Shader 13 finished CTA #1 (7501,0), 2 CTAs running
GPGPU-Sim uArch: core: 13, cta: 1 initialized @(7502,0)
GPGPU-Sim uArch: Shader 10 finished CTA #0 (7524,0), 2 CTAs running
GPGPU-Sim uArch: core: 10, cta: 0 initialized @(7525,0)
GPGPU-Sim uArch: Shader 3 finished CTA #2 (7526,0), 2 CTAs running
GPGPU-Sim uArch: core:  3, cta: 2 initialized @(7527,0)
GPGPU-Sim uArch: Shader 1 finished CTA #2 (7532,0), 2 CTAs running
GPGPU-Sim uArch: core:  1, cta: 2 initialized @(7533,0)
GPGPU-Sim uArch: Shader 8 finished CTA #1 (7535,0), 2 CTAs running
GPGPU-Sim uArch: core:  8, cta: 1 initialized @(7536,0)
GPGPU-Sim uArch: Shader 7 finished CTA #0 (7538,0), 2 CTAs running
GPGPU-Sim uArch: core:  7, cta: 0 initialized @(7539,0)
GPGPU-Sim uArch: Shader 0 finished CTA #1 (7543,0), 2 CTAs running
GPGPU-Sim uArch: core:  0, cta: 1 initialized @(7544,0)
GPGPU-Sim uArch: Shader 11 finished CTA #2 (7554,0), 2 CTAs running
GPGPU-Sim uArch: core: 11, cta: 2 initialized @(7555,0)
GPGPU-Sim uArch: Shader 2 finished CTA #2 (7557,0), 2 CTAs running
GPGPU-Sim uArch: core:  2, cta: 2 initialized @(7558,0)
GPGPU-Sim uArch: Shader 5 finished CTA #1 (7581,0), 2 CTAs running
GPGPU-Sim uArch: core:  5, cta: 1 initialized @(7582,0)
GPGPU-Sim uArch: Shader 3 finished CTA #1 (7583,0), 2 CTAs running
GPGPU-Sim uArch: core:  3, cta: 1 initialized @(7584,0)
GPGPU-Sim uArch: Shader 1 finished CTA #1 (7586,0), 2 CTAs running
GPGPU-Sim uArch: core:  1, cta: 1 initialized @(7587,0)
GPGPU-Sim uArch: Shader 11 finished CTA #1 (7589,0), 2 CTAs running
GPGPU-Sim uArch: core: 11, cta: 1 initialized @(7590,0)
GPGPU-Sim uArch: Shader 2 finished CTA #0 (7593,0), 2 CTAs running
GPGPU-Sim uArch: core:  2, cta: 0 initialized @(7594,0)
GPGPU-Sim uArch: Shader 9 finished CTA #1 (7601,0), 2 CTAs running
GPGPU-Sim uArch: core:  9, cta: 1 initialized @(7602,0)
GPGPU-Sim uArch: Shader 5 finished CTA #0 (7608,0), 2 CTAs running
GPGPU-Sim uArch: Shader 13 finished CTA #2 (7608,0), 2 CTAs running
GPGPU-Sim uArch: core: 13, cta: 2 initialized @(7609,0)
GPGPU-Sim uArch: core:  5, cta: 0 initialized @(7609,0)
GPGPU-Sim uArch: Shader 12 finished CTA #0 (7609,0), 2 CTAs running
GPGPU-Sim uArch: core: 12, cta: 0 initialized @(7610,0)
GPGPU-Sim uArch: Shader 3 finished CTA #0 (7616,0), 2 CTAs running
GPGPU-Sim uArch: core:  3, cta: 0 initialized @(7617,0)
GPGPU-Sim uArch: Shader 12 finished CTA #1 (7626,0), 2 CTAs running
GPGPU-Sim uArch: core: 12, cta: 1 initialized @(7627,0)
GPGPU-Sim uArch: Shader 10 finished CTA #1 (7629,0), 2 CTAs running
GPGPU-Sim uArch: core: 10, cta: 1 initialized @(7630,0)
GPGPU-Sim uArch: Shader 6 finished CTA #0 (7631,0), 2 CTAs running
GPGPU-Sim uArch: core:  6, cta: 0 initialized @(7632,0)
GPGPU-Sim uArch: Shader 7 finished CTA #1 (7633,0), 2 CTAs running
GPGPU-Sim uArch: core:  7, cta: 1 initialized @(7634,0)
GPGPU-Sim uArch: Shader 2 finished CTA #1 (7635,0), 2 CTAs running
GPGPU-Sim uArch: Shader 12 finished CTA #2 (7635,0), 2 CTAs running
GPGPU-Sim uArch: core: 12, cta: 2 initialized @(7636,0)
GPGPU-Sim uArch: core:  2, cta: 1 initialized @(7636,0)
GPGPU-Sim uArch: Shader 11 finished CTA #0 (7636,0), 2 CTAs running
GPGPU-Sim uArch: core: 11, cta: 0 initialized @(7637,0)
GPGPU-Sim uArch: Shader 0 finished CTA #0 (7643,0), 2 CTAs running
GPGPU-Sim uArch: core:  0, cta: 0 initialized @(7644,0)
GPGPU-Sim uArch: Shader 13 finished CTA #0 (7648,0), 2 CTAs running
GPGPU-Sim uArch: core: 13, cta: 0 initialized @(7649,0)
GPGPU-Sim uArch: Shader 0 finished CTA #2 (7655,0), 2 CTAs running
GPGPU-Sim uArch: core:  0, cta: 2 initialized @(7656,0)
GPGPU-Sim uArch: Shader 7 finished CTA #2 (7659,0), 2 CTAs running
GPGPU-Sim uArch: core:  7, cta: 2 initialized @(7660,0)
GPGPU-Sim uArch: Shader 6 finished CTA #1 (7660,0), 2 CTAs running
GPGPU-Sim uArch: Shader 10 finished CTA #2 (7660,0), 2 CTAs running
GPGPU-Sim uArch: core: 10, cta: 2 initialized @(7661,0)
GPGPU-Sim uArch: core:  6, cta: 1 initialized @(7661,0)
GPGPU-Sim uArch: Shader 6 finished CTA #2 (7669,0), 2 CTAs running
GPGPU-Sim uArch: core:  6, cta: 2 initialized @(7670,0)
GPGPU-Sim uArch: Shader 10 finished CTA #0 (12141,0), 2 CTAs running
GPGPU-Sim uArch: core: 10, cta: 0 initialized @(12142,0)
GPGPU-Sim uArch: Shader 4 finished CTA #2 (12335,0), 2 CTAs running
GPGPU-Sim uArch: core:  4, cta: 2 initialized @(12336,0)
GPGPU-Sim uArch: Shader 1 finished CTA #0 (12391,0), 2 CTAs running
GPGPU-Sim uArch: core:  1, cta: 0 initialized @(12392,0)
GPGPU-Sim uArch: Shader 13 finished CTA #1 (12422,0), 2 CTAs running
GPGPU-Sim uArch: core: 13, cta: 1 initialized @(12423,0)
GPGPU-Sim uArch: Shader 5 finished CTA #2 (12426,0), 2 CTAs running
GPGPU-Sim uArch: core:  5, cta: 2 initialized @(12427,0)
GPGPU-Sim uArch: Shader 4 finished CTA #1 (12427,0), 2 CTAs running
GPGPU-Sim uArch: core:  4, cta: 1 initialized @(12428,0)
GPGPU-Sim uArch: Shader 8 finished CTA #2 (12434,0), 2 CTAs running
GPGPU-Sim uArch: core:  8, cta: 2 initialized @(12435,0)
GPGPU-Sim uArch: Shader 8 finished CTA #0 (12470,0), 2 CTAs running
GPGPU-Sim uArch: core:  8, cta: 0 initialized @(12471,0)
GPGPU-Sim uArch: Shader 7 finished CTA #0 (12475,0), 2 CTAs running
GPGPU-Sim uArch: core:  7, cta: 0 initialized @(12476,0)
GPGPU-Sim uArch: Shader 1 finished CTA #2 (12532,0), 2 CTAs running
GPGPU-Sim uArch: core:  1, cta: 2 initialized @(12533,0)
GPGPU-Sim uArch: Shader 4 finished CTA #0 (12545,0), 2 CTAs running
GPGPU-Sim uArch: core:  4, cta: 0 initialized @(12546,0)
GPGPU-Sim uArch: Shader 8 finished CTA #1 (12605,0), 2 CTAs running
GPGPU-Sim uArch: core:  8, cta: 1 initialized @(12606,0)
GPGPU-Sim uArch: Shader 9 finished CTA #2 (12614,0), 2 CTAs running
GPGPU-Sim uArch: core:  9, cta: 2 initialized @(12615,0)
GPGPU-Sim uArch: Shader 11 finished CTA #2 (12616,0), 2 CTAs running
GPGPU-Sim uArch: core: 11, cta: 2 initialized @(12617,0)
GPGPU-Sim uArch: Shader 12 finished CTA #0 (12628,0), 2 CTAs running
GPGPU-Sim uArch: core: 12, cta: 0 initialized @(12629,0)
GPGPU-Sim uArch: Shader 11 finished CTA #1 (12648,0), 2 CTAs running
GPGPU-Sim uArch: core: 11, cta: 1 initialized @(12649,0)
GPGPU-Sim uArch: Shader 9 finished CTA #0 (12650,0), 2 CTAs running
GPGPU-Sim uArch: core:  9, cta: 0 initialized @(12651,0)
GPGPU-Sim uArch: Shader 1 finished CTA #1 (12657,0), 2 CTAs running
GPGPU-Sim uArch: core:  1, cta: 1 initialized @(12658,0)
GPGPU-Sim uArch: Shader 5 finished CTA #1 (12663,0), 2 CTAs running
GPGPU-Sim uArch: core:  5, cta: 1 initialized @(12664,0)
GPGPU-Sim uArch: Shader 5 finished CTA #0 (12677,0), 2 CTAs running
GPGPU-Sim uArch: core:  5, cta: 0 initialized @(12678,0)
GPGPU-Sim uArch: Shader 2 finished CTA #2 (12694,0), 2 CTAs running
GPGPU-Sim uArch: core:  2, cta: 2 initialized @(12695,0)
GPGPU-Sim uArch: Shader 12 finished CTA #1 (12732,0), 2 CTAs running
GPGPU-Sim uArch: core: 12, cta: 1 initialized @(12733,0)
GPGPU-Sim uArch: Shader 10 finished CTA #1 (12770,0), 2 CTAs running
GPGPU-Sim uArch: core: 10, cta: 1 initialized @(12771,0)
GPGPU-Sim uArch: Shader 2 finished CTA #0 (12786,0), 2 CTAs running
GPGPU-Sim uArch: core:  2, cta: 0 initialized @(12787,0)
GPGPU-Sim uArch: Shader 10 finished CTA #2 (12838,0), 2 CTAs running
GPGPU-Sim uArch: core: 10, cta: 2 initialized @(12839,0)
GPGPU-Sim uArch: Shader 13 finished CTA #2 (12862,0), 2 CTAs running
GPGPU-Sim uArch: core: 13, cta: 2 initialized @(12863,0)
GPGPU-Sim uArch: Shader 12 finished CTA #2 (12869,0), 2 CTAs running
GPGPU-Sim uArch: core: 12, cta: 2 initialized @(12870,0)
GPGPU-Sim uArch: Shader 7 finished CTA #2 (12871,0), 2 CTAs running
GPGPU-Sim uArch: core:  7, cta: 2 initialized @(12872,0)
GPGPU-Sim uArch: Shader 3 finished CTA #2 (12883,0), 2 CTAs running
GPGPU-Sim uArch: core:  3, cta: 2 initialized @(12884,0)
GPGPU-Sim uArch: Shader 11 finished CTA #0 (12895,0), 2 CTAs running
GPGPU-Sim uArch: core: 11, cta: 0 initialized @(12896,0)
GPGPU-Sim uArch: Shader 7 finished CTA #1 (12903,0), 2 CTAs running
GPGPU-Sim uArch: core:  7, cta: 1 initialized @(12904,0)
GPGPU-Sim uArch: Shader 6 finished CTA #0 (12905,0), 2 CTAs running
GPGPU-Sim uArch: core:  6, cta: 0 initialized @(12906,0)
GPGPU-Sim uArch: Shader 9 finished CTA #1 (12927,0), 2 CTAs running
GPGPU-Sim uArch: core:  9, cta: 1 initialized @(12928,0)
GPGPU-Sim uArch: Shader 2 finished CTA #1 (12943,0), 2 CTAs running
GPGPU-Sim uArch: core:  2, cta: 1 initialized @(12944,0)
GPGPU-Sim uArch: Shader 13 finished CTA #0 (12957,0), 2 CTAs running
GPGPU-Sim uArch: core: 13, cta: 0 initialized @(12958,0)
GPGPU-Sim uArch: Shader 3 finished CTA #1 (12967,0), 2 CTAs running
GPGPU-Sim uArch: core:  3, cta: 1 initialized @(12968,0)
GPGPU-Sim uArch: Shader 6 finished CTA #1 (12981,0), 2 CTAs running
GPGPU-Sim uArch: core:  6, cta: 1 initialized @(12982,0)
GPGPU-Sim uArch: Shader 0 finished CTA #0 (13012,0), 2 CTAs running
GPGPU-Sim uArch: core:  0, cta: 0 initialized @(13013,0)
GPGPU-Sim uArch: Shader 0 finished CTA #1 (13041,0), 2 CTAs running
GPGPU-Sim uArch: core:  0, cta: 1 initialized @(13042,0)
GPGPU-Sim uArch: Shader 3 finished CTA #0 (13045,0), 2 CTAs running
GPGPU-Sim uArch: core:  3, cta: 0 initialized @(13046,0)
GPGPU-Sim uArch: Shader 0 finished CTA #2 (13126,0), 2 CTAs running
GPGPU-Sim uArch: core:  0, cta: 2 initialized @(13127,0)
GPGPU-Sim uArch: Shader 6 finished CTA #2 (13160,0), 2 CTAs running
GPGPU-Sim uArch: core:  6, cta: 2 initialized @(13161,0)
GPGPU-Sim uArch: Shader 10 finished CTA #0 (16909,0), 2 CTAs running
GPGPU-Sim uArch: core: 10, cta: 0 initialized @(16910,0)
GPGPU-Sim uArch: Shader 4 finished CTA #2 (16958,0), 2 CTAs running
GPGPU-Sim uArch: core:  4, cta: 2 initialized @(16959,0)
GPGPU-Sim uArch: Shader 1 finished CTA #0 (17244,0), 2 CTAs running
GPGPU-Sim uArch: core:  1, cta: 0 initialized @(17245,0)
GPGPU-Sim uArch: Shader 13 finished CTA #1 (17305,0), 2 CTAs running
GPGPU-Sim uArch: core: 13, cta: 1 initialized @(17306,0)
GPGPU-Sim uArch: Shader 7 finished CTA #0 (17475,0), 2 CTAs running
GPGPU-Sim uArch: core:  7, cta: 0 initialized @(17476,0)
GPGPU-Sim uArch: Shader 4 finished CTA #1 (17519,0), 2 CTAs running
GPGPU-Sim uArch: core:  4, cta: 1 initialized @(17520,0)
GPGPU-Sim uArch: Shader 12 finished CTA #0 (17523,0), 2 CTAs running
GPGPU-Sim uArch: core: 12, cta: 0 initialized @(17524,0)
GPGPU-Sim uArch: Shader 10 finished CTA #1 (17593,0), 2 CTAs running
GPGPU-Sim uArch: core: 10, cta: 1 initialized @(17594,0)
GPGPU-Sim uArch: Shader 4 finished CTA #0 (17599,0), 2 CTAs running
GPGPU-Sim uArch: core:  4, cta: 0 initialized @(17600,0)
GPGPU-Sim uArch: Shader 12 finished CTA #1 (17605,0), 2 CTAs running
GPGPU-Sim uArch: core: 12, cta: 1 initialized @(17606,0)
GPGPU-Sim uArch: Shader 10 finished CTA #2 (17627,0), 2 CTAs running
GPGPU-Sim uArch: core: 10, cta: 2 initialized @(17628,0)
GPGPU-Sim uArch: Shader 8 finished CTA #2 (17651,0), 2 CTAs running
GPGPU-Sim uArch: core:  8, cta: 2 initialized @(17652,0)
GPGPU-Sim uArch: Shader 5 finished CTA #2 (17655,0), 2 CTAs running
GPGPU-Sim uArch: Shader 11 finished CTA #2 (17655,0), 2 CTAs running
GPGPU-Sim uArch: core: 11, cta: 2 initialized @(17656,0)
GPGPU-Sim uArch: core:  5, cta: 2 initialized @(17656,0)
GPGPU-Sim uArch: Shader 11 finished CTA #1 (17664,0), 2 CTAs running
GPGPU-Sim uArch: core: 11, cta: 1 initialized @(17665,0)
GPGPU-Sim uArch: Shader 1 finished CTA #2 (17671,0), 2 CTAs running
GPGPU-Sim uArch: core:  1, cta: 2 initialized @(17672,0)
GPGPU-Sim uArch: Shader 8 finished CTA #0 (17709,0), 2 CTAs running
GPGPU-Sim uArch: core:  8, cta: 0 initialized @(17710,0)
GPGPU-Sim uArch: Shader 9 finished CTA #2 (17720,0), 2 CTAs running
GPGPU-Sim uArch: core:  9, cta: 2 initialized @(17721,0)
GPGPU-Sim uArch: Shader 12 finished CTA #2 (17747,0), 2 CTAs running
GPGPU-Sim uArch: core: 12, cta: 2 initialized @(17748,0)
GPGPU-Sim uArch: Shader 1 finished CTA #1 (17749,0), 2 CTAs running
GPGPU-Sim uArch: core:  1, cta: 1 initialized @(17750,0)
GPGPU-Sim uArch: Shader 7 finished CTA #2 (17754,0), 2 CTAs running
GPGPU-Sim uArch: core:  7, cta: 2 initialized @(17755,0)
GPGPU-Sim uArch: Shader 9 finished CTA #0 (17788,0), 2 CTAs running
GPGPU-Sim uArch: core:  9, cta: 0 initialized @(17789,0)
GPGPU-Sim uArch: Shader 7 finished CTA #1 (17804,0), 2 CTAs running
GPGPU-Sim uArch: core:  7, cta: 1 initialized @(17805,0)
GPGPU-Sim uArch: Shader 13 finished CTA #2 (17828,0), 2 CTAs running
GPGPU-Sim uArch: core: 13, cta: 2 initialized @(17829,0)
GPGPU-Sim uArch: Shader 8 finished CTA #1 (17847,0), 2 CTAs running
GPGPU-Sim uArch: core:  8, cta: 1 initialized @(17848,0)
GPGPU-Sim uArch: Shader 11 finished CTA #0 (17851,0), 2 CTAs running
GPGPU-Sim uArch: core: 11, cta: 0 initialized @(17852,0)
GPGPU-Sim uArch: Shader 2 finished CTA #2 (17874,0), 2 CTAs running
GPGPU-Sim uArch: core:  2, cta: 2 initialized @(17875,0)
GPGPU-Sim uArch: Shader 5 finished CTA #0 (17887,0), 2 CTAs running
GPGPU-Sim uArch: core:  5, cta: 0 initialized @(17888,0)
GPGPU-Sim uArch: Shader 5 finished CTA #1 (17905,0), 2 CTAs running
GPGPU-Sim uArch: core:  5, cta: 1 initialized @(17906,0)
GPGPU-Sim uArch: Shader 3 finished CTA #2 (17917,0), 2 CTAs running
GPGPU-Sim uArch: core:  3, cta: 2 initialized @(17918,0)
GPGPU-Sim uArch: Shader 13 finished CTA #0 (17934,0), 2 CTAs running
GPGPU-Sim uArch: core: 13, cta: 0 initialized @(17935,0)
GPGPU-Sim uArch: Shader 3 finished CTA #1 (18045,0), 2 CTAs running
GPGPU-Sim uArch: core:  3, cta: 1 initialized @(18046,0)
GPGPU-Sim uArch: Shader 9 finished CTA #1 (18049,0), 2 CTAs running
GPGPU-Sim uArch: core:  9, cta: 1 initialized @(18050,0)
GPGPU-Sim uArch: Shader 2 finished CTA #0 (18076,0), 2 CTAs running
GPGPU-Sim uArch: core:  2, cta: 0 initialized @(18077,0)
GPGPU-Sim uArch: Shader 2 finished CTA #1 (18116,0), 2 CTAs running
GPGPU-Sim uArch: core:  2, cta: 1 initialized @(18117,0)
GPGPU-Sim uArch: Shader 6 finished CTA #0 (18169,0), 2 CTAs running
GPGPU-Sim uArch: core:  6, cta: 0 initialized @(18170,0)
GPGPU-Sim uArch: Shader 0 finished CTA #0 (18250,0), 2 CTAs running
GPGPU-Sim uArch: core:  0, cta: 0 initialized @(18251,0)
GPGPU-Sim uArch: Shader 0 finished CTA #1 (18259,0), 2 CTAs running
GPGPU-Sim uArch: core:  0, cta: 1 initialized @(18260,0)
GPGPU-Sim uArch: Shader 3 finished CTA #0 (18292,0), 2 CTAs running
GPGPU-Sim uArch: core:  3, cta: 0 initialized @(18293,0)
GPGPU-Sim uArch: Shader 0 finished CTA #2 (18317,0), 2 CTAs running
GPGPU-Sim uArch: core:  0, cta: 2 initialized @(18318,0)
GPGPU-Sim uArch: Shader 6 finished CTA #1 (18321,0), 2 CTAs running
GPGPU-Sim uArch: core:  6, cta: 1 initialized @(18322,0)
GPGPU-Sim uArch: Shader 6 finished CTA #2 (18340,0), 2 CTAs running
GPGPU-Sim uArch: core:  6, cta: 2 initialized @(18341,0)
GPGPU-Sim uArch: Shader 4 finished CTA #2 (21316,0), 2 CTAs running
GPGPU-Sim uArch: core:  4, cta: 2 initialized @(21317,0)
GPGPU-Sim uArch: Shader 10 finished CTA #0 (21440,0), 2 CTAs running
GPGPU-Sim uArch: core: 10, cta: 0 initialized @(21441,0)
GPGPU-Sim uArch: Shader 1 finished CTA #0 (21748,0), 2 CTAs running
GPGPU-Sim uArch: core:  1, cta: 0 initialized @(21749,0)
GPGPU-Sim uArch: Shader 4 finished CTA #1 (21974,0), 2 CTAs running
GPGPU-Sim uArch: core:  4, cta: 1 initialized @(21975,0)
GPGPU-Sim uArch: Shader 10 finished CTA #1 (22037,0), 2 CTAs running
GPGPU-Sim uArch: core: 10, cta: 1 initialized @(22038,0)
GPGPU-Sim uArch: Shader 12 finished CTA #0 (22064,0), 2 CTAs running
GPGPU-Sim uArch: core: 12, cta: 0 initialized @(22065,0)
GPGPU-Sim uArch: Shader 13 finished CTA #1 (22161,0), 2 CTAs running
GPGPU-Sim uArch: core: 13, cta: 1 initialized @(22162,0)
GPGPU-Sim uArch: Shader 11 finished CTA #1 (22250,0), 2 CTAs running
GPGPU-Sim uArch: core: 11, cta: 1 initialized @(22251,0)
GPGPU-Sim uArch: Shader 7 finished CTA #0 (22263,0), 2 CTAs running
GPGPU-Sim uArch: core:  7, cta: 0 initialized @(22264,0)
GPGPU-Sim uArch: Shader 5 finished CTA #2 (22321,0), 2 CTAs running
GPGPU-Sim uArch: core:  5, cta: 2 initialized @(22322,0)
GPGPU-Sim uArch: Shader 1 finished CTA #2 (22332,0), 2 CTAs running
GPGPU-Sim uArch: core:  1, cta: 2 initialized @(22333,0)
GPGPU-Sim uArch: Shader 11 finished CTA #2 (22384,0), 2 CTAs running
GPGPU-Sim uArch: core: 11, cta: 2 initialized @(22385,0)
GPGPU-Sim uArch: Shader 8 finished CTA #2 (22436,0), 2 CTAs running
GPGPU-Sim uArch: core:  8, cta: 2 initialized @(22437,0)
GPGPU-Sim uArch: Shader 5 finished CTA #0 (22579,0), 2 CTAs running
GPGPU-Sim uArch: core:  5, cta: 0 initialized @(22580,0)
GPGPU-Sim uArch: Shader 13 finished CTA #2 (22697,0), 2 CTAs running
GPGPU-Sim uArch: core: 13, cta: 2 initialized @(22698,0)
GPGPU-Sim uArch: Shader 9 finished CTA #2 (22717,0), 2 CTAs running
GPGPU-Sim uArch: core:  9, cta: 2 initialized @(22718,0)
GPGPU-Sim uArch: Shader 7 finished CTA #1 (22747,0), 2 CTAs running
GPGPU-Sim uArch: core:  7, cta: 1 initialized @(22748,0)
GPGPU-Sim uArch: Shader 13 finished CTA #0 (22761,0), 2 CTAs running
GPGPU-Sim uArch: core: 13, cta: 0 initialized @(22762,0)
GPGPU-Sim uArch: Shader 7 finished CTA #2 (22776,0), 2 CTAs running
GPGPU-Sim uArch: core:  7, cta: 2 initialized @(22777,0)
GPGPU-Sim uArch: Shader 11 finished CTA #0 (22779,0), 2 CTAs running
GPGPU-Sim uArch: core: 11, cta: 0 initialized @(22780,0)
GPGPU-Sim uArch: Shader 5 finished CTA #1 (22799,0), 2 CTAs running
GPGPU-Sim uArch: core:  5, cta: 1 initialized @(22800,0)
GPGPU-Sim uArch: Shader 2 finished CTA #2 (22803,0), 2 CTAs running
GPGPU-Sim uArch: core:  2, cta: 2 initialized @(22804,0)
GPGPU-Sim uArch: Shader 8 finished CTA #0 (22833,0), 2 CTAs running
GPGPU-Sim uArch: core:  8, cta: 0 initialized @(22834,0)
GPGPU-Sim uArch: Shader 10 finished CTA #2 (22855,0), 2 CTAs running
GPGPU-Sim uArch: core: 10, cta: 2 initialized @(22856,0)
GPGPU-Sim uArch: Shader 9 finished CTA #0 (22868,0), 2 CTAs running
GPGPU-Sim uArch: core:  9, cta: 0 initialized @(22869,0)
GPGPU-Sim uArch: Shader 8 finished CTA #1 (22870,0), 2 CTAs running
GPGPU-Sim uArch: core:  8, cta: 1 initialized @(22871,0)
GPGPU-Sim uArch: Shader 1 finished CTA #1 (22880,0), 2 CTAs running
GPGPU-Sim uArch: core:  1, cta: 1 initialized @(22881,0)
GPGPU-Sim uArch: Shader 12 finished CTA #1 (22890,0), 2 CTAs running
GPGPU-Sim uArch: core: 12, cta: 1 initialized @(22891,0)
GPGPU-Sim uArch: Shader 2 finished CTA #0 (22966,0), 2 CTAs running
GPGPU-Sim uArch: core:  2, cta: 0 initialized @(22967,0)
GPGPU-Sim uArch: Shader 2 finished CTA #1 (23029,0), 2 CTAs running
GPGPU-Sim uArch: core:  2, cta: 1 initialized @(23030,0)
GPGPU-Sim uArch: Shader 9 finished CTA #1 (23043,0), 2 CTAs running
GPGPU-Sim uArch: core:  9, cta: 1 initialized @(23044,0)
GPGPU-Sim uArch: Shader 4 finished CTA #0 (23084,0), 2 CTAs running
GPGPU-Sim uArch: core:  4, cta: 0 initialized @(23085,0)
GPGPU-Sim uArch: Shader 12 finished CTA #2 (23204,0), 2 CTAs running
GPGPU-Sim uArch: core: 12, cta: 2 initialized @(23205,0)
GPGPU-Sim uArch: Shader 0 finished CTA #0 (23224,0), 2 CTAs running
GPGPU-Sim uArch: core:  0, cta: 0 initialized @(23225,0)
GPGPU-Sim uArch: Shader 6 finished CTA #0 (23254,0), 2 CTAs running
GPGPU-Sim uArch: core:  6, cta: 0 initialized @(23255,0)
GPGPU-Sim uArch: Shader 3 finished CTA #1 (23357,0), 2 CTAs running
GPGPU-Sim uArch: core:  3, cta: 1 initialized @(23358,0)
GPGPU-Sim uArch: Shader 3 finished CTA #2 (23433,0), 2 CTAs running
GPGPU-Sim uArch: core:  3, cta: 2 initialized @(23434,0)
GPGPU-Sim uArch: Shader 0 finished CTA #1 (23514,0), 2 CTAs running
GPGPU-Sim uArch: core:  0, cta: 1 initialized @(23515,0)
GPGPU-Sim uArch: Shader 0 finished CTA #2 (23608,0), 2 CTAs running
GPGPU-Sim uArch: core:  0, cta: 2 initialized @(23609,0)
GPGPU-Sim uArch: Shader 3 finished CTA #0 (23619,0), 2 CTAs running
GPGPU-Sim uArch: core:  3, cta: 0 initialized @(23620,0)
GPGPU-Sim uArch: Shader 6 finished CTA #1 (23759,0), 2 CTAs running
GPGPU-Sim uArch: core:  6, cta: 1 initialized @(23760,0)
GPGPU-Sim uArch: Shader 6 finished CTA #2 (23829,0), 2 CTAs running
GPGPU-Sim uArch: core:  6, cta: 2 initialized @(23830,0)
GPGPU-Sim uArch: Shader 10 finished CTA #0 (25884,0), 2 CTAs running
GPGPU-Sim uArch: core: 10, cta: 0 initialized @(25885,0)
GPGPU-Sim uArch: Shader 4 finished CTA #2 (26383,0), 2 CTAs running
GPGPU-Sim uArch: core:  4, cta: 2 initialized @(26384,0)
GPGPU-Sim uArch: Shader 10 finished CTA #1 (26584,0), 2 CTAs running
GPGPU-Sim uArch: core: 10, cta: 1 initialized @(26585,0)
GPGPU-Sim uArch: Shader 1 finished CTA #0 (26585,0), 2 CTAs running
GPGPU-Sim uArch: core:  1, cta: 0 initialized @(26586,0)
GPGPU-Sim uArch: Shader 7 finished CTA #0 (26706,0), 2 CTAs running
GPGPU-Sim uArch: core:  7, cta: 0 initialized @(26707,0)
GPGPU-Sim uArch: Shader 11 finished CTA #1 (26772,0), 2 CTAs running
GPGPU-Sim uArch: core: 11, cta: 1 initialized @(26773,0)
GPGPU-Sim uArch: Shader 1 finished CTA #2 (26858,0), 2 CTAs running
GPGPU-Sim uArch: core:  1, cta: 2 initialized @(26859,0)
GPGPU-Sim uArch: Shader 5 finished CTA #2 (26864,0), 2 CTAs running
GPGPU-Sim uArch: core:  5, cta: 2 initialized @(26865,0)
GPGPU-Sim uArch: Shader 4 finished CTA #1 (26893,0), 2 CTAs running
GPGPU-Sim uArch: core:  4, cta: 1 initialized @(26894,0)
GPGPU-Sim uArch: Shader 13 finished CTA #1 (27053,0), 2 CTAs running
GPGPU-Sim uArch: core: 13, cta: 1 initialized @(27054,0)
GPGPU-Sim uArch: Shader 1 finished CTA #1 (27130,0), 2 CTAs running
GPGPU-Sim uArch: core:  1, cta: 1 initialized @(27131,0)
GPGPU-Sim uArch: Shader 12 finished CTA #0 (27138,0), 2 CTAs running
GPGPU-Sim uArch: core: 12, cta: 0 initialized @(27139,0)
GPGPU-Sim uArch: Shader 8 finished CTA #2 (27192,0), 2 CTAs running
GPGPU-Sim uArch: core:  8, cta: 2 initialized @(27193,0)
GPGPU-Sim uArch: Shader 7 finished CTA #1 (27254,0), 2 CTAs running
GPGPU-Sim uArch: core:  7, cta: 1 initialized @(27255,0)
GPGPU-Sim uArch: Shader 5 finished CTA #0 (27282,0), 2 CTAs running
GPGPU-Sim uArch: core:  5, cta: 0 initialized @(27283,0)
GPGPU-Sim uArch: Shader 11 finished CTA #2 (27286,0), 2 CTAs running
GPGPU-Sim uArch: core: 11, cta: 2 initialized @(27287,0)
GPGPU-Sim uArch: Shader 9 finished CTA #2 (27297,0), 2 CTAs running
GPGPU-Sim uArch: core:  9, cta: 2 initialized @(27298,0)
GPGPU-Sim uArch: Shader 7 finished CTA #2 (27308,0), 2 CTAs running
GPGPU-Sim uArch: core:  7, cta: 2 initialized @(27309,0)
GPGPU-Sim uArch: Shader 10 finished CTA #2 (27374,0), 2 CTAs running
GPGPU-Sim uArch: core: 10, cta: 2 initialized @(27375,0)
GPGPU-Sim uArch: Shader 2 finished CTA #2 (27376,0), 2 CTAs running
GPGPU-Sim uArch: core:  2, cta: 2 initialized @(27377,0)
GPGPU-Sim uArch: Shader 5 finished CTA #1 (27454,0), 2 CTAs running
GPGPU-Sim uArch: core:  5, cta: 1 initialized @(27455,0)
GPGPU-Sim uArch: Shader 11 finished CTA #0 (27704,0), 2 CTAs running
GPGPU-Sim uArch: core: 11, cta: 0 initialized @(27705,0)
GPGPU-Sim uArch: Shader 8 finished CTA #0 (27746,0), 2 CTAs running
GPGPU-Sim uArch: core:  8, cta: 0 initialized @(27747,0)
GPGPU-Sim uArch: Shader 9 finished CTA #0 (27762,0), 2 CTAs running
GPGPU-Sim uArch: core:  9, cta: 0 initialized @(27763,0)
GPGPU-Sim uArch: Shader 12 finished CTA #1 (27847,0), 2 CTAs running
GPGPU-Sim uArch: core: 12, cta: 1 initialized @(27848,0)
GPGPU-Sim uArch: Shader 2 finished CTA #0 (27882,0), 2 CTAs running
GPGPU-Sim uArch: core:  2, cta: 0 initialized @(27883,0)
GPGPU-Sim uArch: Shader 6 finished CTA #0 (27891,0), 2 CTAs running
GPGPU-Sim uArch: core:  6, cta: 0 initialized @(27892,0)
GPGPU-Sim uArch: Shader 2 finished CTA #1 (27940,0), 2 CTAs running
GPGPU-Sim uArch: core:  2, cta: 1 initialized @(27941,0)
GPGPU-Sim uArch: Shader 9 finished CTA #1 (27951,0), 2 CTAs running
GPGPU-Sim uArch: core:  9, cta: 1 initialized @(27952,0)
GPGPU-Sim uArch: Shader 12 finished CTA #2 (28080,0), 2 CTAs running
GPGPU-Sim uArch: core: 12, cta: 2 initialized @(28081,0)
GPGPU-Sim uArch: Shader 0 finished CTA #0 (28092,0), 2 CTAs running
GPGPU-Sim uArch: core:  0, cta: 0 initialized @(28093,0)
GPGPU-Sim uArch: Shader 13 finished CTA #0 (28317,0), 2 CTAs running
GPGPU-Sim uArch: core: 13, cta: 0 initialized @(28318,0)
GPGPU-Sim uArch: Shader 13 finished CTA #2 (28354,0), 2 CTAs running
GPGPU-Sim uArch: core: 13, cta: 2 initialized @(28355,0)
GPGPU-Sim uArch: Shader 4 finished CTA #0 (28484,0), 2 CTAs running
GPGPU-Sim uArch: core:  4, cta: 0 initialized @(28485,0)
GPGPU-Sim uArch: Shader 3 finished CTA #1 (28533,0), 2 CTAs running
GPGPU-Sim uArch: core:  3, cta: 1 initialized @(28534,0)
GPGPU-Sim uArch: Shader 6 finished CTA #1 (28565,0), 2 CTAs running
GPGPU-Sim uArch: core:  6, cta: 1 initialized @(28566,0)
GPGPU-Sim uArch: Shader 6 finished CTA #2 (28654,0), 2 CTAs running
GPGPU-Sim uArch: core:  6, cta: 2 initialized @(28655,0)
GPGPU-Sim uArch: Shader 3 finished CTA #0 (28703,0), 2 CTAs running
GPGPU-Sim uArch: core:  3, cta: 0 initialized @(28704,0)
GPGPU-Sim uArch: Shader 0 finished CTA #1 (28705,0), 2 CTAs running
GPGPU-Sim uArch: core:  0, cta: 1 initialized @(28706,0)
GPGPU-Sim uArch: Shader 0 finished CTA #2 (28734,0), 2 CTAs running
GPGPU-Sim uArch: core:  0, cta: 2 initialized @(28735,0)
GPGPU-Sim uArch: Shader 3 finished CTA #2 (28751,0), 2 CTAs running
GPGPU-Sim uArch: core:  3, cta: 2 initialized @(28752,0)
GPGPU-Sim uArch: Shader 8 finished CTA #1 (28891,0), 2 CTAs running
GPGPU-Sim uArch: core:  8, cta: 1 initialized @(28892,0)
GPGPU-Sim uArch: Shader 10 finished CTA #0 (30362,0), 2 CTAs running
GPGPU-Sim uArch: core: 10, cta: 0 initialized @(30363,0)
GPGPU-Sim uArch: Shader 4 finished CTA #2 (30403,0), 2 CTAs running
GPGPU-Sim uArch: core:  4, cta: 2 initialized @(30404,0)
GPGPU-Sim uArch: Shader 10 finished CTA #1 (31037,0), 2 CTAs running
GPGPU-Sim uArch: core: 10, cta: 1 initialized @(31038,0)
GPGPU-Sim uArch: Shader 1 finished CTA #0 (31196,0), 2 CTAs running
GPGPU-Sim uArch: core:  1, cta: 0 initialized @(31197,0)
GPGPU-Sim uArch: Shader 7 finished CTA #0 (31260,0), 2 CTAs running
GPGPU-Sim uArch: core:  7, cta: 0 initialized @(31261,0)
GPGPU-Sim uArch: Shader 1 finished CTA #2 (31451,0), 2 CTAs running
GPGPU-Sim uArch: core:  1, cta: 2 initialized @(31452,0)
GPGPU-Sim uArch: Shader 5 finished CTA #2 (31614,0), 2 CTAs running
GPGPU-Sim uArch: core:  5, cta: 2 initialized @(31615,0)
GPGPU-Sim uArch: Shader 13 finished CTA #1 (31678,0), 2 CTAs running
GPGPU-Sim uArch: core: 13, cta: 1 initialized @(31679,0)
GPGPU-Sim uArch: Shader 1 finished CTA #1 (31716,0), 2 CTAs running
GPGPU-Sim uArch: core:  1, cta: 1 initialized @(31717,0)
GPGPU-Sim uArch: Shader 11 finished CTA #1 (31717,0), 2 CTAs running
GPGPU-Sim uArch: core: 11, cta: 1 initialized @(31718,0)
GPGPU-Sim uArch: Shader 4 finished CTA #1 (31724,0), 2 CTAs running
GPGPU-Sim uArch: core:  4, cta: 1 initialized @(31725,0)
GPGPU-Sim uArch: Shader 2 finished CTA #2 (31743,0), 2 CTAs running
GPGPU-Sim uArch: core:  2, cta: 2 initialized @(31744,0)
GPGPU-Sim uArch: Shader 5 finished CTA #0 (31797,0), 2 CTAs running
GPGPU-Sim uArch: core:  5, cta: 0 initialized @(31798,0)
GPGPU-Sim uArch: Shader 12 finished CTA #0 (31803,0), 2 CTAs running
GPGPU-Sim uArch: core: 12, cta: 0 initialized @(31804,0)
GPGPU-Sim uArch: Shader 7 finished CTA #1 (31888,0), 2 CTAs running
GPGPU-Sim uArch: core:  7, cta: 1 initialized @(31889,0)
GPGPU-Sim uArch: Shader 7 finished CTA #2 (31943,0), 2 CTAs running
GPGPU-Sim uArch: core:  7, cta: 2 initialized @(31944,0)
GPGPU-Sim uArch: Shader 5 finished CTA #1 (31973,0), 2 CTAs running
GPGPU-Sim uArch: core:  5, cta: 1 initialized @(31974,0)
GPGPU-Sim uArch: Shader 11 finished CTA #2 (32092,0), 2 CTAs running
GPGPU-Sim uArch: core: 11, cta: 2 initialized @(32093,0)
GPGPU-Sim uArch: Shader 9 finished CTA #2 (32216,0), 2 CTAs running
GPGPU-Sim uArch: core:  9, cta: 2 initialized @(32217,0)
GPGPU-Sim uArch: Shader 10 finished CTA #2 (32248,0), 2 CTAs running
GPGPU-Sim uArch: core: 10, cta: 2 initialized @(32249,0)
GPGPU-Sim uArch: Shader 11 finished CTA #0 (32295,0), 2 CTAs running
GPGPU-Sim uArch: core: 11, cta: 0 initialized @(32296,0)
GPGPU-Sim uArch: Shader 8 finished CTA #2 (32473,0), 2 CTAs running
GPGPU-Sim uArch: core:  8, cta: 2 initialized @(32474,0)
GPGPU-Sim uArch: Shader 8 finished CTA #0 (32637,0), 2 CTAs running
GPGPU-Sim uArch: core:  8, cta: 0 initialized @(32638,0)
GPGPU-Sim uArch: Shader 9 finished CTA #0 (32672,0), 2 CTAs running
GPGPU-Sim uArch: core:  9, cta: 0 initialized @(32673,0)
GPGPU-Sim uArch: Shader 9 finished CTA #1 (32879,0), 2 CTAs running
GPGPU-Sim uArch: core:  9, cta: 1 initialized @(32880,0)
GPGPU-Sim uArch: Shader 0 finished CTA #0 (32897,0), 2 CTAs running
GPGPU-Sim uArch: core:  0, cta: 0 initialized @(32898,0)
GPGPU-Sim uArch: Shader 6 finished CTA #0 (32929,0), 2 CTAs running
GPGPU-Sim uArch: core:  6, cta: 0 initialized @(32930,0)
GPGPU-Sim uArch: Shader 8 finished CTA #1 (33080,0), 2 CTAs running
GPGPU-Sim uArch: core:  8, cta: 1 initialized @(33081,0)
GPGPU-Sim uArch: Shader 2 finished CTA #0 (33116,0), 2 CTAs running
GPGPU-Sim uArch: core:  2, cta: 0 initialized @(33117,0)
GPGPU-Sim uArch: Shader 2 finished CTA #1 (33163,0), 2 CTAs running
GPGPU-Sim uArch: core:  2, cta: 1 initialized @(33164,0)
GPGPU-Sim uArch: Shader 12 finished CTA #1 (33176,0), 2 CTAs running
GPGPU-Sim uArch: core: 12, cta: 1 initialized @(33177,0)
GPGPU-Sim uArch: Shader 12 finished CTA #2 (33224,0), 2 CTAs running
GPGPU-Sim uArch: core: 12, cta: 2 initialized @(33225,0)
GPGPU-Sim uArch: Shader 6 finished CTA #1 (33336,0), 2 CTAs running
GPGPU-Sim uArch: core:  6, cta: 1 initialized @(33337,0)
GPGPU-Sim uArch: Shader 0 finished CTA #1 (33382,0), 2 CTAs running
GPGPU-Sim uArch: core:  0, cta: 1 initialized @(33383,0)
GPGPU-Sim uArch: Shader 6 finished CTA #2 (33392,0), 2 CTAs running
GPGPU-Sim uArch: core:  6, cta: 2 initialized @(33393,0)
GPGPU-Sim uArch: Shader 13 finished CTA #2 (33393,0), 2 CTAs running
GPGPU-Sim uArch: core: 13, cta: 2 initialized @(33394,0)
GPGPU-Sim uArch: Shader 4 finished CTA #0 (33400,0), 2 CTAs running
GPGPU-Sim uArch: core:  4, cta: 0 initialized @(33401,0)
GPGPU-Sim uArch: Shader 0 finished CTA #2 (33436,0), 2 CTAs running
GPGPU-Sim uArch: core:  0, cta: 2 initialized @(33437,0)
GPGPU-Sim uArch: Shader 13 finished CTA #0 (33471,0), 2 CTAs running
GPGPU-Sim uArch: core: 13, cta: 0 initialized @(33472,0)
GPGPU-Sim uArch: Shader 3 finished CTA #0 (33533,0), 2 CTAs running
GPGPU-Sim uArch: core:  3, cta: 0 initialized @(33534,0)
GPGPU-Sim uArch: Shader 3 finished CTA #1 (33610,0), 2 CTAs running
GPGPU-Sim uArch: core:  3, cta: 1 initialized @(33611,0)
GPGPU-Sim uArch: Shader 3 finished CTA #2 (33686,0), 2 CTAs running
GPGPU-Sim uArch: core:  3, cta: 2 initialized @(33687,0)
GPGPU-Sim uArch: Shader 4 finished CTA #2 (35276,0), 2 CTAs running
GPGPU-Sim uArch: core:  4, cta: 2 initialized @(35277,0)
GPGPU-Sim uArch: Shader 10 finished CTA #0 (35296,0), 2 CTAs running
GPGPU-Sim uArch: core: 10, cta: 0 initialized @(35297,0)
GPGPU-Sim uArch: Shader 10 finished CTA #1 (35636,0), 2 CTAs running
GPGPU-Sim uArch: core: 10, cta: 1 initialized @(35637,0)
GPGPU-Sim uArch: Shader 7 finished CTA #0 (35790,0), 2 CTAs running
GPGPU-Sim uArch: core:  7, cta: 0 initialized @(35791,0)
GPGPU-Sim uArch: Shader 1 finished CTA #0 (36079,0), 2 CTAs running
GPGPU-Sim uArch: core:  1, cta: 0 initialized @(36080,0)
GPGPU-Sim uArch: Shader 7 finished CTA #1 (36208,0), 2 CTAs running
GPGPU-Sim uArch: core:  7, cta: 1 initialized @(36209,0)
GPGPU-Sim uArch: Shader 5 finished CTA #2 (36236,0), 2 CTAs running
GPGPU-Sim uArch: core:  5, cta: 2 initialized @(36237,0)
GPGPU-Sim uArch: Shader 7 finished CTA #2 (36266,0), 2 CTAs running
GPGPU-Sim uArch: core:  7, cta: 2 initialized @(36267,0)
GPGPU-Sim uArch: Shader 11 finished CTA #1 (36310,0), 2 CTAs running
GPGPU-Sim uArch: core: 11, cta: 1 initialized @(36311,0)
GPGPU-Sim uArch: Shader 1 finished CTA #2 (36380,0), 2 CTAs running
GPGPU-Sim uArch: core:  1, cta: 2 initialized @(36381,0)
GPGPU-Sim uArch: Shader 13 finished CTA #1 (36381,0), 2 CTAs running
GPGPU-Sim uArch: core: 13, cta: 1 initialized @(36382,0)
GPGPU-Sim uArch: Shader 1 finished CTA #1 (36450,0), 2 CTAs running
GPGPU-Sim uArch: core:  1, cta: 1 initialized @(36451,0)
GPGPU-Sim uArch: Shader 4 finished CTA #1 (36465,0), 2 CTAs running
GPGPU-Sim uArch: core:  4, cta: 1 initialized @(36466,0)
GPGPU-Sim uArch: Shader 5 finished CTA #0 (36630,0), 2 CTAs running
GPGPU-Sim uArch: core:  5, cta: 0 initialized @(36631,0)
GPGPU-Sim uArch: Shader 5 finished CTA #1 (36659,0), 2 CTAs running
GPGPU-Sim uArch: core:  5, cta: 1 initialized @(36660,0)
GPGPU-Sim uArch: Shader 11 finished CTA #2 (36770,0), 2 CTAs running
GPGPU-Sim uArch: core: 11, cta: 2 initialized @(36771,0)
GPGPU-Sim uArch: Shader 9 finished CTA #2 (36870,0), 2 CTAs running
GPGPU-Sim uArch: core:  9, cta: 2 initialized @(36871,0)
GPGPU-Sim uArch: Shader 11 finished CTA #0 (36919,0), 2 CTAs running
GPGPU-Sim uArch: core: 11, cta: 0 initialized @(36920,0)
GPGPU-Sim uArch: Shader 8 finished CTA #2 (36988,0), 2 CTAs running
GPGPU-Sim uArch: core:  8, cta: 2 initialized @(36989,0)
GPGPU-Sim uArch: Shader 12 finished CTA #0 (37221,0), 2 CTAs running
GPGPU-Sim uArch: core: 12, cta: 0 initialized @(37222,0)
GPGPU-Sim uArch: Shader 2 finished CTA #2 (37250,0), 2 CTAs running
GPGPU-Sim uArch: core:  2, cta: 2 initialized @(37251,0)
GPGPU-Sim uArch: Shader 9 finished CTA #0 (37290,0), 2 CTAs running
GPGPU-Sim uArch: core:  9, cta: 0 initialized @(37291,0)
GPGPU-Sim uArch: Shader 10 finished CTA #2 (37332,0), 2 CTAs running
GPGPU-Sim uArch: core: 10, cta: 2 initialized @(37333,0)
GPGPU-Sim uArch: Shader 6 finished CTA #0 (37365,0), 2 CTAs running
GPGPU-Sim uArch: core:  6, cta: 0 initialized @(37366,0)
GPGPU-Sim uArch: Shader 9 finished CTA #1 (37412,0), 2 CTAs running
GPGPU-Sim uArch: core:  9, cta: 1 initialized @(37413,0)
GPGPU-Sim uArch: Shader 0 finished CTA #0 (37458,0), 2 CTAs running
GPGPU-Sim uArch: core:  0, cta: 0 initialized @(37459,0)
GPGPU-Sim uArch: Shader 2 finished CTA #0 (37839,0), 2 CTAs running
GPGPU-Sim uArch: core:  2, cta: 0 initialized @(37840,0)
GPGPU-Sim uArch: Shader 2 finished CTA #1 (37929,0), 2 CTAs running
GPGPU-Sim uArch: core:  2, cta: 1 initialized @(37930,0)
GPGPU-Sim uArch: Shader 6 finished CTA #2 (38080,0), 2 CTAs running
GPGPU-Sim uArch: core:  6, cta: 2 initialized @(38081,0)
GPGPU-Sim uArch: Shader 0 finished CTA #1 (38114,0), 2 CTAs running
GPGPU-Sim uArch: core:  0, cta: 1 initialized @(38115,0)
GPGPU-Sim uArch: Shader 6 finished CTA #1 (38124,0), 2 CTAs running
GPGPU-Sim uArch: core:  6, cta: 1 initialized @(38125,0)
GPGPU-Sim uArch: Shader 3 finished CTA #0 (38185,0), 2 CTAs running
GPGPU-Sim uArch: core:  3, cta: 0 initialized @(38186,0)
GPGPU-Sim uArch: Shader 0 finished CTA #2 (38196,0), 2 CTAs running
GPGPU-Sim uArch: core:  0, cta: 2 initialized @(38197,0)
GPGPU-Sim uArch: Shader 13 finished CTA #2 (38263,0), 2 CTAs running
GPGPU-Sim uArch: core: 13, cta: 2 initialized @(38264,0)
GPGPU-Sim uArch: Shader 4 finished CTA #0 (38273,0), 2 CTAs running
GPGPU-Sim uArch: core:  4, cta: 0 initialized @(38274,0)
GPGPU-Sim uArch: Shader 13 finished CTA #0 (38343,0), 2 CTAs running
GPGPU-Sim uArch: core: 13, cta: 0 initialized @(38344,0)
GPGPU-Sim uArch: Shader 8 finished CTA #0 (38380,0), 2 CTAs running
GPGPU-Sim uArch: core:  8, cta: 0 initialized @(38381,0)
GPGPU-Sim uArch: Shader 8 finished CTA #1 (38397,0), 2 CTAs running
GPGPU-Sim uArch: core:  8, cta: 1 initialized @(38398,0)
GPGPU-Sim uArch: Shader 12 finished CTA #1 (38402,0), 2 CTAs running
GPGPU-Sim uArch: core: 12, cta: 1 initialized @(38403,0)
GPGPU-Sim uArch: Shader 12 finished CTA #2 (38444,0), 2 CTAs running
GPGPU-Sim uArch: core: 12, cta: 2 initialized @(38445,0)
GPGPU-Sim uArch: Shader 3 finished CTA #2 (39245,0), 2 CTAs running
GPGPU-Sim uArch: core:  3, cta: 2 initialized @(39246,0)
GPGPU-Sim uArch: Shader 4 finished CTA #2 (39478,0), 2 CTAs running
GPGPU-Sim uArch: core:  4, cta: 2 initialized @(39479,0)
GPGPU-Sim uArch: Shader 3 finished CTA #1 (39592,0), 2 CTAs running
GPGPU-Sim uArch: core:  3, cta: 1 initialized @(39593,0)
GPGPU-Sim uArch: Shader 10 finished CTA #0 (40602,0), 2 CTAs running
GPGPU-Sim uArch: core: 10, cta: 0 initialized @(40603,0)
GPGPU-Sim uArch: Shader 7 finished CTA #0 (40646,0), 2 CTAs running
GPGPU-Sim uArch: core:  7, cta: 0 initialized @(40647,0)
GPGPU-Sim uArch: Shader 10 finished CTA #1 (40671,0), 2 CTAs running
GPGPU-Sim uArch: core: 10, cta: 1 initialized @(40672,0)
GPGPU-Sim uArch: Shader 1 finished CTA #0 (40680,0), 2 CTAs running
GPGPU-Sim uArch: core:  1, cta: 0 initialized @(40681,0)
GPGPU-Sim uArch: Shader 5 finished CTA #2 (40705,0), 2 CTAs running
GPGPU-Sim uArch: core:  5, cta: 2 initialized @(40706,0)
GPGPU-Sim uArch: Shader 7 finished CTA #1 (40809,0), 2 CTAs running
GPGPU-Sim uArch: core:  7, cta: 1 initialized @(40810,0)
GPGPU-Sim uArch: Shader 11 finished CTA #1 (40959,0), 2 CTAs running
GPGPU-Sim uArch: core: 11, cta: 1 initialized @(40960,0)
GPGPU-Sim uArch: Shader 7 finished CTA #2 (40982,0), 2 CTAs running
GPGPU-Sim uArch: core:  7, cta: 2 initialized @(40983,0)
GPGPU-Sim uArch: Shader 1 finished CTA #2 (41154,0), 2 CTAs running
GPGPU-Sim uArch: core:  1, cta: 2 initialized @(41155,0)
GPGPU-Sim uArch: Shader 1 finished CTA #1 (41189,0), 2 CTAs running
GPGPU-Sim uArch: core:  1, cta: 1 initialized @(41190,0)
GPGPU-Sim uArch: Shader 10 finished CTA #2 (41278,0), 2 CTAs running
GPGPU-Sim uArch: core: 10, cta: 2 initialized @(41279,0)
GPGPU-Sim uArch: Shader 13 finished CTA #1 (41289,0), 2 CTAs running
GPGPU-Sim uArch: core: 13, cta: 1 initialized @(41290,0)
GPGPU-Sim uArch: Shader 9 finished CTA #2 (41347,0), 2 CTAs running
GPGPU-Sim uArch: core:  9, cta: 2 initialized @(41348,0)
GPGPU-Sim uArch: Shader 5 finished CTA #0 (41387,0), 2 CTAs running
GPGPU-Sim uArch: core:  5, cta: 0 initialized @(41388,0)
GPGPU-Sim uArch: Shader 11 finished CTA #2 (41449,0), 2 CTAs running
GPGPU-Sim uArch: core: 11, cta: 2 initialized @(41450,0)
GPGPU-Sim uArch: Shader 4 finished CTA #1 (41458,0), 2 CTAs running
GPGPU-Sim uArch: core:  4, cta: 1 initialized @(41459,0)
GPGPU-Sim uArch: Shader 11 finished CTA #0 (41636,0), 2 CTAs running
GPGPU-Sim uArch: core: 11, cta: 0 initialized @(41637,0)
GPGPU-Sim uArch: Shader 2 finished CTA #2 (41734,0), 2 CTAs running
GPGPU-Sim uArch: core:  2, cta: 2 initialized @(41735,0)
GPGPU-Sim uArch: Shader 9 finished CTA #0 (41735,0), 2 CTAs running
GPGPU-Sim uArch: core:  9, cta: 0 initialized @(41736,0)
GPGPU-Sim uArch: Shader 5 finished CTA #1 (41811,0), 2 CTAs running
GPGPU-Sim uArch: Shader 6 finished CTA #0 (41811,0), 2 CTAs running
GPGPU-Sim uArch: core:  5, cta: 1 initialized @(41812,0)
GPGPU-Sim uArch: core:  6, cta: 0 initialized @(41812,0)
GPGPU-Sim uArch: Shader 9 finished CTA #1 (42064,0), 2 CTAs running
GPGPU-Sim uArch: core:  9, cta: 1 initialized @(42065,0)
GPGPU-Sim uArch: Shader 0 finished CTA #0 (42068,0), 2 CTAs running
GPGPU-Sim uArch: core:  0, cta: 0 initialized @(42069,0)
GPGPU-Sim uArch: Shader 8 finished CTA #2 (42139,0), 2 CTAs running
GPGPU-Sim uArch: core:  8, cta: 2 initialized @(42140,0)
GPGPU-Sim uArch: Shader 2 finished CTA #0 (42269,0), 2 CTAs running
GPGPU-Sim uArch: core:  2, cta: 0 initialized @(42270,0)
GPGPU-Sim uArch: Shader 2 finished CTA #1 (42278,0), 2 CTAs running
GPGPU-Sim uArch: core:  2, cta: 1 initialized @(42279,0)
GPGPU-Sim uArch: Shader 12 finished CTA #0 (42441,0), 2 CTAs running
GPGPU-Sim uArch: core: 12, cta: 0 initialized @(42442,0)
GPGPU-Sim uArch: Shader 0 finished CTA #1 (42649,0), 2 CTAs running
GPGPU-Sim uArch: core:  0, cta: 1 initialized @(42650,0)
GPGPU-Sim uArch: Shader 0 finished CTA #2 (42705,0), 2 CTAs running
GPGPU-Sim uArch: core:  0, cta: 2 initialized @(42706,0)
GPGPU-Sim uArch: Shader 13 finished CTA #2 (43010,0), 2 CTAs running
GPGPU-Sim uArch: core: 13, cta: 2 initialized @(43011,0)
GPGPU-Sim uArch: Shader 13 finished CTA #0 (43056,0), 2 CTAs running
GPGPU-Sim uArch: core: 13, cta: 0 initialized @(43057,0)
GPGPU-Sim uArch: Shader 4 finished CTA #0 (43120,0), 2 CTAs running
GPGPU-Sim uArch: core:  4, cta: 0 initialized @(43121,0)
GPGPU-Sim uArch: Shader 3 finished CTA #0 (43206,0), 2 CTAs running
GPGPU-Sim uArch: core:  3, cta: 0 initialized @(43207,0)
GPGPU-Sim uArch: Shader 6 finished CTA #1 (43281,0), 2 CTAs running
GPGPU-Sim uArch: core:  6, cta: 1 initialized @(43282,0)
GPGPU-Sim uArch: Shader 6 finished CTA #2 (43310,0), 2 CTAs running
GPGPU-Sim uArch: core:  6, cta: 2 initialized @(43311,0)
GPGPU-Sim uArch: Shader 12 finished CTA #1 (43414,0), 2 CTAs running
GPGPU-Sim uArch: core: 12, cta: 1 initialized @(43415,0)
GPGPU-Sim uArch: Shader 8 finished CTA #0 (43546,0), 2 CTAs running
GPGPU-Sim uArch: core:  8, cta: 0 initialized @(43547,0)
GPGPU-Sim uArch: Shader 8 finished CTA #1 (43576,0), 2 CTAs running
GPGPU-Sim uArch: core:  8, cta: 1 initialized @(43577,0)
GPGPU-Sim uArch: Shader 3 finished CTA #2 (43632,0), 2 CTAs running
GPGPU-Sim uArch: core:  3, cta: 2 initialized @(43633,0)
GPGPU-Sim uArch: Shader 12 finished CTA #2 (43654,0), 2 CTAs running
GPGPU-Sim uArch: core: 12, cta: 2 initialized @(43655,0)
GPGPU-Sim uArch: Shader 3 finished CTA #1 (43795,0), 2 CTAs running
GPGPU-Sim uArch: core:  3, cta: 1 initialized @(43796,0)
GPGPU-Sim uArch: Shader 4 finished CTA #2 (44171,0), 2 CTAs running
GPGPU-Sim uArch: core:  4, cta: 2 initialized @(44172,0)
GPGPU-Sim uArch: Shader 10 finished CTA #0 (45199,0), 2 CTAs running
GPGPU-Sim uArch: core: 10, cta: 0 initialized @(45200,0)
GPGPU-Sim uArch: Shader 1 finished CTA #0 (45245,0), 2 CTAs running
GPGPU-Sim uArch: core:  1, cta: 0 initialized @(45246,0)
GPGPU-Sim uArch: Shader 10 finished CTA #1 (45331,0), 2 CTAs running
GPGPU-Sim uArch: core: 10, cta: 1 initialized @(45332,0)
GPGPU-Sim uArch: Shader 7 finished CTA #0 (45338,0), 2 CTAs running
GPGPU-Sim uArch: core:  7, cta: 0 initialized @(45339,0)
GPGPU-Sim uArch: Shader 5 finished CTA #2 (45714,0), 2 CTAs running
GPGPU-Sim uArch: core:  5, cta: 2 initialized @(45715,0)
GPGPU-Sim uArch: Shader 7 finished CTA #1 (45718,0), 2 CTAs running
GPGPU-Sim uArch: core:  7, cta: 1 initialized @(45719,0)
GPGPU-Sim uArch: Shader 11 finished CTA #1 (45730,0), 2 CTAs running
GPGPU-Sim uArch: core: 11, cta: 1 initialized @(45731,0)
GPGPU-Sim uArch: Shader 7 finished CTA #2 (45821,0), 2 CTAs running
GPGPU-Sim uArch: core:  7, cta: 2 initialized @(45822,0)
GPGPU-Sim uArch: Shader 10 finished CTA #2 (45832,0), 2 CTAs running
GPGPU-Sim uArch: core: 10, cta: 2 initialized @(45833,0)
GPGPU-Sim uArch: Shader 1 finished CTA #1 (45887,0), 2 CTAs running
GPGPU-Sim uArch: core:  1, cta: 1 initialized @(45888,0)
GPGPU-Sim uArch: Shader 13 finished CTA #1 (45892,0), 2 CTAs running
GPGPU-Sim uArch: core: 13, cta: 1 initialized @(45893,0)
GPGPU-Sim uArch: Shader 9 finished CTA #2 (45893,0), 2 CTAs running
GPGPU-Sim uArch: core:  9, cta: 2 initialized @(45894,0)
GPGPU-Sim uArch: Shader 5 finished CTA #0 (45937,0), 2 CTAs running
GPGPU-Sim uArch: core:  5, cta: 0 initialized @(45938,0)
GPGPU-Sim uArch: Shader 11 finished CTA #2 (45945,0), 2 CTAs running
GPGPU-Sim uArch: core: 11, cta: 2 initialized @(45946,0)
GPGPU-Sim uArch: Shader 11 finished CTA #0 (46039,0), 2 CTAs running
GPGPU-Sim uArch: core: 11, cta: 0 initialized @(46040,0)
GPGPU-Sim uArch: Shader 5 finished CTA #1 (46104,0), 2 CTAs running
GPGPU-Sim uArch: core:  5, cta: 1 initialized @(46105,0)
GPGPU-Sim uArch: Shader 1 finished CTA #2 (46259,0), 2 CTAs running
GPGPU-Sim uArch: core:  1, cta: 2 initialized @(46260,0)
GPGPU-Sim uArch: Shader 9 finished CTA #0 (46382,0), 2 CTAs running
GPGPU-Sim uArch: core:  9, cta: 0 initialized @(46383,0)
GPGPU-Sim uArch: Shader 9 finished CTA #1 (46591,0), 2 CTAs running
GPGPU-Sim uArch: core:  9, cta: 1 initialized @(46592,0)
GPGPU-Sim uArch: Shader 2 finished CTA #2 (46621,0), 2 CTAs running
GPGPU-Sim uArch: core:  2, cta: 2 initialized @(46622,0)
GPGPU-Sim uArch: Shader 0 finished CTA #0 (46645,0), 2 CTAs running
GPGPU-Sim uArch: core:  0, cta: 0 initialized @(46646,0)
GPGPU-Sim uArch: Shader 4 finished CTA #1 (46784,0), 2 CTAs running
GPGPU-Sim uArch: core:  4, cta: 1 initialized @(46785,0)
GPGPU-Sim uArch: Shader 2 finished CTA #0 (46988,0), 2 CTAs running
GPGPU-Sim uArch: core:  2, cta: 0 initialized @(46989,0)
GPGPU-Sim uArch: Shader 8 finished CTA #2 (47032,0), 2 CTAs running
GPGPU-Sim uArch: core:  8, cta: 2 initialized @(47033,0)
GPGPU-Sim uArch: Shader 2 finished CTA #1 (47130,0), 2 CTAs running
GPGPU-Sim uArch: core:  2, cta: 1 initialized @(47131,0)
GPGPU-Sim uArch: Shader 6 finished CTA #0 (47164,0), 2 CTAs running
GPGPU-Sim uArch: core:  6, cta: 0 initialized @(47165,0)
GPGPU-Sim uArch: Shader 0 finished CTA #1 (47307,0), 2 CTAs running
GPGPU-Sim uArch: core:  0, cta: 1 initialized @(47308,0)
GPGPU-Sim uArch: Shader 0 finished CTA #2 (47364,0), 2 CTAs running
GPGPU-Sim uArch: core:  0, cta: 2 initialized @(47365,0)
GPGPU-Sim uArch: Shader 12 finished CTA #0 (47437,0), 2 CTAs running
GPGPU-Sim uArch: core: 12, cta: 0 initialized @(47438,0)
GPGPU-Sim uArch: Shader 3 finished CTA #0 (47683,0), 2 CTAs running
GPGPU-Sim uArch: core:  3, cta: 0 initialized @(47684,0)
GPGPU-Sim uArch: Shader 13 finished CTA #2 (47701,0), 2 CTAs running
GPGPU-Sim uArch: core: 13, cta: 2 initialized @(47702,0)
GPGPU-Sim uArch: Shader 13 finished CTA #0 (47749,0), 2 CTAs running
GPGPU-Sim uArch: core: 13, cta: 0 initialized @(47750,0)
GPGPU-Sim uArch: Shader 12 finished CTA #1 (47913,0), 2 CTAs running
GPGPU-Sim uArch: core: 12, cta: 1 initialized @(47914,0)
GPGPU-Sim uArch: Shader 4 finished CTA #0 (48178,0), 2 CTAs running
GPGPU-Sim uArch: core:  4, cta: 0 initialized @(48179,0)
GPGPU-Sim uArch: Shader 3 finished CTA #1 (48308,0), 2 CTAs running
GPGPU-Sim uArch: core:  3, cta: 1 initialized @(48309,0)
GPGPU-Sim uArch: Shader 12 finished CTA #2 (48327,0), 2 CTAs running
GPGPU-Sim uArch: core: 12, cta: 2 initialized @(48328,0)
GPGPU-Sim uArch: Shader 6 finished CTA #1 (48454,0), 2 CTAs running
GPGPU-Sim uArch: core:  6, cta: 1 initialized @(48455,0)
GPGPU-Sim uArch: Shader 4 finished CTA #2 (48463,0), 2 CTAs running
GPGPU-Sim uArch: core:  4, cta: 2 initialized @(48464,0)
GPGPU-Sim uArch: Shader 6 finished CTA #2 (48471,0), 2 CTAs running
GPGPU-Sim uArch: core:  6, cta: 2 initialized @(48472,0)
GPGPU-Sim uArch: Shader 8 finished CTA #1 (48801,0), 2 CTAs running
GPGPU-Sim uArch: core:  8, cta: 1 initialized @(48802,0)
GPGPU-Sim uArch: Shader 3 finished CTA #2 (48867,0), 2 CTAs running
GPGPU-Sim uArch: core:  3, cta: 2 initialized @(48868,0)
GPGPU-Sim uArch: Shader 8 finished CTA #0 (48917,0), 2 CTAs running
GPGPU-Sim uArch: core:  8, cta: 0 initialized @(48918,0)
GPGPU-Sim uArch: Shader 10 finished CTA #0 (49402,0), 2 CTAs running
GPGPU-Sim uArch: core: 10, cta: 0 initialized @(49403,0)
GPGPU-Sim uArch: Shader 1 finished CTA #0 (49961,0), 2 CTAs running
GPGPU-Sim uArch: core:  1, cta: 0 initialized @(49962,0)
GPGPU-Sim uArch: Shader 7 finished CTA #0 (50133,0), 2 CTAs running
GPGPU-Sim uArch: core:  7, cta: 0 initialized @(50134,0)
GPGPU-Sim uArch: Shader 10 finished CTA #1 (50166,0), 2 CTAs running
GPGPU-Sim uArch: core: 10, cta: 1 initialized @(50167,0)
GPGPU-Sim uArch: Shader 5 finished CTA #2 (50224,0), 2 CTAs running
GPGPU-Sim uArch: core:  5, cta: 2 initialized @(50225,0)
GPGPU-Sim uArch: Shader 11 finished CTA #1 (50234,0), 2 CTAs running
GPGPU-Sim uArch: core: 11, cta: 1 initialized @(50235,0)
GPGPU-Sim uArch: Shader 1 finished CTA #1 (50262,0), 2 CTAs running
GPGPU-Sim uArch: core:  1, cta: 1 initialized @(50263,0)
GPGPU-Sim uArch: Shader 7 finished CTA #1 (50265,0), 2 CTAs running
GPGPU-Sim uArch: core:  7, cta: 1 initialized @(50266,0)
GPGPU-Sim uArch: Shader 7 finished CTA #2 (50413,0), 2 CTAs running
GPGPU-Sim uArch: core:  7, cta: 2 initialized @(50414,0)
GPGPU-Sim uArch: Shader 5 finished CTA #0 (50494,0), 2 CTAs running
GPGPU-Sim uArch: core:  5, cta: 0 initialized @(50495,0)
GPGPU-Sim uArch: Shader 9 finished CTA #2 (50518,0), 2 CTAs running
GPGPU-Sim uArch: core:  9, cta: 2 initialized @(50519,0)
GPGPU-Sim uArch: Shader 1 finished CTA #2 (50567,0), 2 CTAs running
GPGPU-Sim uArch: core:  1, cta: 2 initialized @(50568,0)
GPGPU-Sim uArch: Shader 10 finished CTA #2 (50580,0), 2 CTAs running
GPGPU-Sim uArch: core: 10, cta: 2 initialized @(50581,0)
GPGPU-Sim uArch: Shader 13 finished CTA #1 (50641,0), 2 CTAs running
GPGPU-Sim uArch: core: 13, cta: 1 initialized @(50642,0)
GPGPU-Sim uArch: Shader 5 finished CTA #1 (50846,0), 2 CTAs running
GPGPU-Sim uArch: core:  5, cta: 1 initialized @(50847,0)
GPGPU-Sim uArch: Shader 11 finished CTA #2 (50849,0), 2 CTAs running
GPGPU-Sim uArch: core: 11, cta: 2 initialized @(50850,0)
GPGPU-Sim uArch: Shader 9 finished CTA #0 (50923,0), 2 CTAs running
GPGPU-Sim uArch: core:  9, cta: 0 initialized @(50924,0)
GPGPU-Sim uArch: Shader 9 finished CTA #1 (51064,0), 2 CTAs running
GPGPU-Sim uArch: core:  9, cta: 1 initialized @(51065,0)
GPGPU-Sim uArch: Shader 11 finished CTA #0 (51162,0), 2 CTAs running
GPGPU-Sim uArch: core: 11, cta: 0 initialized @(51163,0)
GPGPU-Sim uArch: Shader 0 finished CTA #0 (51212,0), 2 CTAs running
GPGPU-Sim uArch: core:  0, cta: 0 initialized @(51213,0)
GPGPU-Sim uArch: Shader 2 finished CTA #2 (51365,0), 2 CTAs running
GPGPU-Sim uArch: core:  2, cta: 2 initialized @(51366,0)
GPGPU-Sim uArch: Shader 6 finished CTA #0 (51640,0), 2 CTAs running
GPGPU-Sim uArch: core:  6, cta: 0 initialized @(51641,0)
GPGPU-Sim uArch: Shader 2 finished CTA #1 (51673,0), 2 CTAs running
GPGPU-Sim uArch: core:  2, cta: 1 initialized @(51674,0)
GPGPU-Sim uArch: Shader 2 finished CTA #0 (51728,0), 2 CTAs running
GPGPU-Sim uArch: core:  2, cta: 0 initialized @(51729,0)
GPGPU-Sim uArch: Shader 4 finished CTA #1 (51844,0), 2 CTAs running
GPGPU-Sim uArch: core:  4, cta: 1 initialized @(51845,0)
GPGPU-Sim uArch: Shader 0 finished CTA #1 (51993,0), 2 CTAs running
GPGPU-Sim uArch: core:  0, cta: 1 initialized @(51994,0)
GPGPU-Sim uArch: Shader 0 finished CTA #2 (52002,0), 2 CTAs running
GPGPU-Sim uArch: core:  0, cta: 2 initialized @(52003,0)
GPGPU-Sim uArch: Shader 12 finished CTA #0 (52018,0), 2 CTAs running
GPGPU-Sim uArch: core: 12, cta: 0 initialized @(52019,0)
GPGPU-Sim uArch: Shader 8 finished CTA #2 (52092,0), 2 CTAs running
GPGPU-Sim uArch: core:  8, cta: 2 initialized @(52093,0)
GPGPU-Sim uArch: Shader 13 finished CTA #2 (52292,0), 2 CTAs running
GPGPU-Sim uArch: core: 13, cta: 2 initialized @(52293,0)
GPGPU-Sim uArch: Shader 13 finished CTA #0 (52325,0), 2 CTAs running
GPGPU-Sim uArch: core: 13, cta: 0 initialized @(52326,0)
GPGPU-Sim uArch: Shader 12 finished CTA #1 (52560,0), 2 CTAs running
GPGPU-Sim uArch: core: 12, cta: 1 initialized @(52561,0)
GPGPU-Sim uArch: Shader 3 finished CTA #0 (52617,0), 2 CTAs running
GPGPU-Sim uArch: core:  3, cta: 0 initialized @(52618,0)
GPGPU-Sim uArch: Shader 3 finished CTA #1 (52913,0), 2 CTAs running
GPGPU-Sim uArch: core:  3, cta: 1 initialized @(52914,0)
GPGPU-Sim uArch: Shader 6 finished CTA #1 (52953,0), 2 CTAs running
GPGPU-Sim uArch: core:  6, cta: 1 initialized @(52954,0)
GPGPU-Sim uArch: Shader 12 finished CTA #2 (53114,0), 2 CTAs running
GPGPU-Sim uArch: core: 12, cta: 2 initialized @(53115,0)
GPGPU-Sim uArch: Shader 6 finished CTA #2 (53158,0), 2 CTAs running
GPGPU-Sim uArch: core:  6, cta: 2 initialized @(53159,0)
GPGPU-Sim uArch: Shader 3 finished CTA #2 (53355,0), 2 CTAs running
GPGPU-Sim uArch: core:  3, cta: 2 initialized @(53356,0)
GPGPU-Sim uArch: Shader 4 finished CTA #0 (53373,0), 2 CTAs running
GPGPU-Sim uArch: core:  4, cta: 0 initialized @(53374,0)
GPGPU-Sim uArch: Shader 4 finished CTA #2 (53410,0), 2 CTAs running
GPGPU-Sim uArch: core:  4, cta: 2 initialized @(53411,0)
GPGPU-Sim uArch: Shader 8 finished CTA #1 (53607,0), 2 CTAs running
GPGPU-Sim uArch: core:  8, cta: 1 initialized @(53608,0)
GPGPU-Sim uArch: Shader 8 finished CTA #0 (53736,0), 2 CTAs running
GPGPU-Sim uArch: core:  8, cta: 0 initialized @(53737,0)
GPGPU-Sim uArch: Shader 10 finished CTA #0 (54345,0), 2 CTAs running
GPGPU-Sim uArch: core: 10, cta: 0 initialized @(54346,0)
[...]
GPGPU-Sim uArch: core:  3, cta: 0 initialized @(211648,0)
GPGPU-Sim uArch: Shader 1 finished CTA #2 (211681,0), 2 CTAs running
GPGPU-Sim uArch: core:  1, cta: 2 initialized @(211682,0)
GPGPU-Sim uArch: Shader 10 finished CTA #0 (211686,0), 2 CTAs running
GPGPU-Sim uArch: core: 10, cta: 0 initialized @(211687,0)
GPGPU-Sim uArch: Shader 4 finished CTA #1 (211702,0), 2 CTAs running
GPGPU-Sim uArch: core:  4, cta: 1 initialized @(211703,0)
GPGPU-Sim uArch: Shader 3 finished CTA #1 (211751,0), 2 CTAs running
GPGPU-Sim uArch: core:  3, cta: 1 initialized @(211752,0)
GPGPU-Sim uArch: Shader 10 finished CTA #1 (211788,0), 2 CTAs running
GPGPU-Sim uArch: core: 10, cta: 1 initialized @(211789,0)
GPGPU-Sim uArch: Shader 4 finished CTA #2 (211929,0), 2 CTAs running
GPGPU-Sim uArch: Shader 6 finished CTA #0 (211948,0), 2 CTAs running
GPGPU-Sim uArch: Shader 1 finished CTA #0 (212010,0), 2 CTAs running
GPGPU-Sim uArch: Shader 1 finished CTA #1 (212046,0), 1 CTAs running
GPGPU-Sim uArch: Shader 4 finished CTA #0 (212088,0), 1 CTAs running
GPGPU-Sim uArch: Shader 2 finished CTA #1 (212380,0), 2 CTAs running
GPGPU-Sim uArch: Shader 9 finished CTA #2 (212407,0), 2 CTAs running
GPGPU-Sim uArch: Shader 8 finished CTA #1 (212693,0), 2 CTAs running
GPGPU-Sim uArch: Shader 8 finished CTA #0 (212785,0), 1 CTAs running
GPGPU-Sim uArch: Shader 6 finished CTA #1 (212862,0), 1 CTAs running
GPGPU-Sim uArch: Shader 12 finished CTA #2 (213003,0), 2 CTAs running
GPGPU-Sim uArch: Shader 6 finished CTA #2 (213004,0), 0 CTAs running
GPGPU-Sim uArch: Shader 6 empty (release kernel 1 '_Z14calculate_tempiPfS_S_iiiiffffff').
GPGPU-Sim uArch: Shader 9 finished CTA #0 (213149,0), 1 CTAs running
GPGPU-Sim uArch: Shader 5 finished CTA #1 (213353,0), 2 CTAs running
GPGPU-Sim uArch: Shader 9 finished CTA #1 (213358,0), 0 CTAs running
GPGPU-Sim uArch: Shader 9 empty (release kernel 1 '_Z14calculate_tempiPfS_S_iiiiffffff').
GPGPU-Sim uArch: Shader 12 finished CTA #0 (213426,0), 1 CTAs running
GPGPU-Sim uArch: Shader 7 finished CTA #1 (213567,0), 2 CTAs running
GPGPU-Sim uArch: Shader 13 finished CTA #1 (213686,0), 2 CTAs running
GPGPU-Sim uArch: Shader 5 finished CTA #2 (213706,0), 1 CTAs running
GPGPU-Sim uArch: Shader 5 finished CTA #0 (213738,0), 0 CTAs running
GPGPU-Sim uArch: Shader 5 empty (release kernel 1 '_Z14calculate_tempiPfS_S_iiiiffffff').
GPGPU-Sim uArch: Shader 12 finished CTA #1 (213804,0), 0 CTAs running
GPGPU-Sim uArch: Shader 12 empty (release kernel 1 '_Z14calculate_tempiPfS_S_iiiiffffff').
GPGPU-Sim uArch: Shader 7 finished CTA #2 (213827,0), 1 CTAs running
GPGPU-Sim uArch: Shader 1 finished CTA #2 (214058,0), 0 CTAs running
GPGPU-Sim uArch: Shader 1 empty (release kernel 1 '_Z14calculate_tempiPfS_S_iiiiffffff').
GPGPU-Sim uArch: Shader 8 finished CTA #2 (214061,0), 0 CTAs running
GPGPU-Sim uArch: Shader 8 empty (release kernel 1 '_Z14calculate_tempiPfS_S_iiiiffffff').
GPGPU-Sim uArch: Shader 4 finished CTA #1 (214116,0), 0 CTAs running
GPGPU-Sim uArch: Shader 4 empty (release kernel 1 '_Z14calculate_tempiPfS_S_iiiiffffff').
GPGPU-Sim uArch: Shader 13 finished CTA #2 (214146,0), 1 CTAs running
GPGPU-Sim uArch: Shader 2 finished CTA #2 (214182,0), 1 CTAs running
GPGPU-Sim uArch: Shader 7 finished CTA #0 (214290,0), 0 CTAs running
GPGPU-Sim uArch: Shader 7 empty (release kernel 1 '_Z14calculate_tempiPfS_S_iiiiffffff').
GPGPU-Sim uArch: Shader 13 finished CTA #0 (214304,0), 0 CTAs running
GPGPU-Sim uArch: Shader 13 empty (release kernel 1 '_Z14calculate_tempiPfS_S_iiiiffffff').
GPGPU-Sim uArch: Shader 2 finished CTA #0 (214319,0), 0 CTAs running
GPGPU-Sim uArch: Shader 2 empty (release kernel 1 '_Z14calculate_tempiPfS_S_iiiiffffff').
GPGPU-Sim uArch: Shader 0 finished CTA #0 (214621,0), 2 CTAs running
GPGPU-Sim uArch: Shader 0 finished CTA #1 (214869,0), 1 CTAs running
GPGPU-Sim uArch: Shader 0 finished CTA #2 (214887,0), 0 CTAs running
GPGPU-Sim uArch: Shader 0 empty (release kernel 1 '_Z14calculate_tempiPfS_S_iiiiffffff').
GPGPU-Sim uArch: Shader 11 finished CTA #1 (214927,0), 2 CTAs running
GPGPU-Sim uArch: Shader 3 finished CTA #2 (214940,0), 2 CTAs running
GPGPU-Sim uArch: Shader 10 finished CTA #2 (215113,0), 2 CTAs running
GPGPU-Sim uArch: Shader 11 finished CTA #0 (215187,0), 1 CTAs running
GPGPU-Sim uArch: Shader 11 finished CTA #2 (215218,0), 0 CTAs running
GPGPU-Sim uArch: Shader 11 empty (release kernel 1 '_Z14calculate_tempiPfS_S_iiiiffffff').
GPGPU-Sim uArch: Shader 3 finished CTA #0 (215230,0), 1 CTAs running
GPGPU-Sim uArch: Shader 3 finished CTA #1 (215280,0), 0 CTAs running
GPGPU-Sim uArch: Shader 3 empty (release kernel 1 '_Z14calculate_tempiPfS_S_iiiiffffff').
GPGPU-Sim uArch: Shader 10 finished CTA #0 (215359,0), 1 CTAs running
GPGPU-Sim uArch: Shader 10 finished CTA #1 (215383,0), 0 CTAs running
GPGPU-Sim uArch: Shader 10 empty (release kernel 1 '_Z14calculate_tempiPfS_S_iiiiffffff').
GPGPU-Sim uArch: GPU detected kernel '_Z14calculate_tempiPfS_S_iiiiffffff' finished on shader 10.
kernel_name = _Z14calculate_tempiPfS_S_iiiiffffff 
kernel_launch_uid = 1 
gpu_sim_cycle = 215384
gpu_sim_insn = 89083700
gpu_ipc =     413.6041
gpu_tot_sim_cycle = 215384
gpu_tot_sim_insn = 89083700
gpu_tot_ipc =     413.6041
gpu_tot_issued_cta = 0
gpu_stall_dramfull = 3637
gpu_stall_icnt2sh    = 188553
gpu_total_sim_rate=650245

========= Core cache stats =========
L1I_cache:
	L1I_total_cache_accesses = 1794623
	L1I_total_cache_misses = 3329
	L1I_total_cache_miss_rate = 0.0019
	L1I_total_cache_pending_hits = 0
	L1I_total_cache_reservation_fails = 0
L1D_cache:
	L1D_cache_core[0]: Access = 8204, Miss = 7632, Miss_rate = 0.930, Pending_hits = 543, Reservation_fails = 67679
	L1D_cache_core[1]: Access = 7720, Miss = 7441, Miss_rate = 0.964, Pending_hits = 247, Reservation_fails = 70622
	L1D_cache_core[2]: Access = 8344, Miss = 7837, Miss_rate = 0.939, Pending_hits = 481, Reservation_fails = 67779
	L1D_cache_core[3]: Access = 8152, Miss = 7513, Miss_rate = 0.922, Pending_hits = 567, Reservation_fails = 66381
	L1D_cache_core[4]: Access = 8304, Miss = 7805, Miss_rate = 0.940, Pending_hits = 447, Reservation_fails = 69221
	L1D_cache_core[5]: Access = 8364, Miss = 7941, Miss_rate = 0.949, Pending_hits = 396, Reservation_fails = 67752
	L1D_cache_core[6]: Access = 8044, Miss = 7697, Miss_rate = 0.957, Pending_hits = 333, Reservation_fails = 72373
	L1D_cache_core[7]: Access = 7812, Miss = 7470, Miss_rate = 0.956, Pending_hits = 322, Reservation_fails = 67032
	L1D_cache_core[8]: Access = 8100, Miss = 7808, Miss_rate = 0.964, Pending_hits = 283, Reservation_fails = 70965
	L1D_cache_core[9]: Access = 7752, Miss = 7465, Miss_rate = 0.963, Pending_hits = 256, Reservation_fails = 70779
	L1D_cache_core[10]: Access = 8184, Miss = 7736, Miss_rate = 0.945, Pending_hits = 408, Reservation_fails = 68161
	L1D_cache_core[11]: Access = 7808, Miss = 7271, Miss_rate = 0.931, Pending_hits = 500, Reservation_fails = 67722
	L1D_cache_core[12]: Access = 7988, Miss = 7511, Miss_rate = 0.940, Pending_hits = 446, Reservation_fails = 67072
	L1D_cache_core[13]: Access = 8040, Miss = 7604, Miss_rate = 0.946, Pending_hits = 387, Reservation_fails = 68877
	L1D_total_cache_accesses = 112816
	L1D_total_cache_misses = 106731
	L1D_total_cache_miss_rate = 0.9461
	L1D_total_cache_pending_hits = 5616
	L1D_total_cache_reservation_fails = 962415
	L1D_cache_data_port_util = 0.000
	L1D_cache_fill_port_util = 0.027
L1C_cache:
	L1C_total_cache_accesses = 0
	L1C_total_cache_misses = 0
	L1C_total_cache_pending_hits = 0
	L1C_total_cache_reservation_fails = 0
L1T_cache:
	L1T_total_cache_accesses = 0
	L1T_total_cache_misses = 0
	L1T_total_cache_pending_hits = 0
	L1T_total_cache_reservation_fails = 0

Total_core_cache_stats:
	Total_core_cache_stats_breakdown[GLOBAL_ACC_R][HIT] = 469
	Total_core_cache_stats_breakdown[GLOBAL_ACC_R][HIT_RESERVED] = 5616
	Total_core_cache_stats_breakdown[GLOBAL_ACC_R][MISS] = 79595
	Total_core_cache_stats_breakdown[GLOBAL_ACC_R][RESERVATION_FAIL] = 958013
	Total_core_cache_stats_breakdown[GLOBAL_ACC_W][MISS] = 27136
	Total_core_cache_stats_breakdown[GLOBAL_ACC_W][RESERVATION_FAIL] = 4402
	Total_core_cache_stats_breakdown[INST_ACC_R][HIT] = 1791294
	Total_core_cache_stats_breakdown[INST_ACC_R][MISS] = 3329
Shader 0 warp_id issue ditsribution:
warp_id:
0, 1, 2, 3, 4, 5, 6, 7, 8, 9, 10, 11, 12, 13, 14, 15, 16, 17, 18, 19, 20, 21, 22, 23, 
distro:
8114, 11264, 11264, 11264, 11264, 11139, 11139, 8207, 8114, 11264, 11264, 11264, 11264, 11139, 11139, 8207, 8114, 11264, 11264, 11264, 11264, 11139, 11139, 8207, 
gpgpu_n_tot_thrd_icount = 112481120
gpgpu_n_tot_w_icount = 3515035
gpgpu_n_stall_shd_mem = 1034983
gpgpu_n_mem_read_local = 0
gpgpu_n_mem_write_local = 0
gpgpu_n_mem_read_global = 79595
gpgpu_n_mem_write_global = 27136
gpgpu_n_mem_texture = 0
gpgpu_n_mem_const = 0
gpgpu_n_load_insn  = 924800
gpgpu_n_store_insn = 262144
gpgpu_n_shmem_insn = 6840720
gpgpu_n_tex_insn = 0
gpgpu_n_const_mem_insn = 0
gpgpu_n_param_mem_insn = 0
gpgpu_n_shmem_bkconflict = 0
gpgpu_n_cache_bkconflict = 0
gpgpu_n_intrawarp_mshr_merge = 0
gpgpu_n_cmem_portconflict = 0
gpgpu_stall_shd_mem[c_mem][bk_conf] = 0
gpgpu_stall_shd_mem[c_mem][mshr_rc] = 0
gpgpu_stall_shd_mem[c_mem][icnt_rc] = 0
gpgpu_stall_shd_mem[c_mem][data_port_stall] = 0
gpgpu_stall_shd_mem[t_mem][mshr_rc] = 0
gpgpu_stall_shd_mem[t_mem][icnt_rc] = 0
gpgpu_stall_shd_mem[t_mem][data_port_stall] = 0
gpgpu_stall_shd_mem[s_mem][bk_conf] = 0
gpgpu_stall_shd_mem[gl_mem][bk_conf] = 0
gpgpu_stall_shd_mem[gl_mem][coal_stall] = 1034983
gpgpu_stall_shd_mem[gl_mem][data_port_stall] = 0
gpgpu_stall_shd_mem[g_mem_ld][mshr_rc] = 0
gpgpu_stall_shd_mem[g_mem_ld][icnt_rc] = 0
gpgpu_stall_shd_mem[g_mem_ld][wb_icnt_rc] = 0
gpgpu_stall_shd_mem[g_mem_ld][wb_rsrv_fail] = 0
gpgpu_stall_shd_mem[g_mem_st][mshr_rc] = 0
gpgpu_stall_shd_mem[g_mem_st][icnt_rc] = 0
gpgpu_stall_shd_mem[g_mem_st][wb_icnt_rc] = 0
gpgpu_stall_shd_mem[g_mem_st][wb_rsrv_fail] = 0
gpgpu_stall_shd_mem[l_mem_ld][mshr_rc] = 0
gpgpu_stall_shd_mem[l_mem_ld][icnt_rc] = 0
gpgpu_stall_shd_mem[l_mem_ld][wb_icnt_rc] = 0
gpgpu_stall_shd_mem[l_mem_ld][wb_rsrv_fail] = 0
gpgpu_stall_shd_mem[l_mem_st][mshr_rc] = 0
gpgpu_stall_shd_mem[l_mem_st][icnt_rc] = 0
gpgpu_stall_shd_mem[l_mem_ld][wb_icnt_rc] = 0
gpgpu_stall_shd_mem[l_mem_ld][wb_rsrv_fail] = 0
gpu_reg_bank_conflict_stalls = 0
Warp Occupancy Distribution:
Stall:1794307	W0_Idle:314745	W0_Scoreboard:375581	W1:0	W2:0	W3:0	W4:0	W5:0	W6:0	W7:0	W8:0	W9:3450	W10:0	W11:0	W12:0	W13:3622	W14:159768	W15:0	W16:16392	W17:0	W18:10504	W19:0	W20:5440	W21:0	W22:0	W23:0	W24:788310	W25:0	W26:11020	W27:0	W28:580830	W29:0	W30:44376	W31:0	W32:1891323
traffic_breakdown_coretomem[GLOBAL_ACC_R] = 636760 {8:79595,}
traffic_breakdown_coretomem[GLOBAL_ACC_W] = 1970176 {40:10752,72:10752,136:5632,}
traffic_breakdown_coretomem[INST_ACC_R] = 1456 {8:182,}
traffic_breakdown_memtocore[GLOBAL_ACC_R] = 10824920 {136:79595,}
traffic_breakdown_memtocore[GLOBAL_ACC_W] = 217088 {8:27136,}
traffic_breakdown_memtocore[INST_ACC_R] = 24752 {136:182,}
Memory Partition 0: 
Cache L2_bank_000:
MSHR contents

Cache L2_bank_001:
MSHR contents

In Dram Latency Queue (total = 0): 
DRAM[0]: 16 bks, busW=4 BL=8 CL=12, tRRD=2 tCCD=6, tRCD=12 tRAS=28 tRP=12 tRC=40
n_cmd=280935 n_nop=265107 n_act=1512 n_pre=1496 n_req=7256 n_rd=8198 n_write=4622 bw_util=0.09127
n_activity=113329 dram_eff=0.2262
bk0: 516a 274607i bk1: 514a 274185i bk2: 512a 274240i bk3: 512a 273825i bk4: 512a 274714i bk5: 512a 274549i bk6: 512a 274495i bk7: 512a 274354i bk8: 512a 274976i bk9: 512a 274329i bk10: 512a 275366i bk11: 512a 274662i bk12: 512a 275558i bk13: 512a 275001i bk14: 512a 275167i bk15: 512a 275010i 
dram_util_bins: 0 0 0 0 0 0 0 0 0 0
dram_eff_bins: 0 0 0 0 0 0 0 0 0 0
mrqq: max=16 avg=0.41254
Memory Partition 1: 
Cache L2_bank_002:
MSHR contents

Cache L2_bank_003:
MSHR contents

In Dram Latency Queue (total = 0): 
DRAM[1]: 16 bks, busW=4 BL=8 CL=12, tRRD=2 tCCD=6, tRCD=12 tRAS=28 tRP=12 tRC=40
n_cmd=280935 n_nop=265189 n_act=1498 n_pre=1482 n_req=7184 n_rd=8196 n_write=4570 bw_util=0.09088
n_activity=112703 dram_eff=0.2265
bk0: 516a 274583i bk1: 512a 274668i bk2: 512a 274336i bk3: 512a 274440i bk4: 512a 274454i bk5: 512a 274307i bk6: 512a 274470i bk7: 512a 274705i bk8: 512a 275327i bk9: 512a 274405i bk10: 512a 275356i bk11: 512a 274530i bk12: 512a 275418i bk13: 512a 274851i bk14: 512a 274796i bk15: 512a 275604i 
dram_util_bins: 0 0 0 0 0 0 0 0 0 0
dram_eff_bins: 0 0 0 0 0 0 0 0 0 0
mrqq: max=16 avg=0.370424
Memory Partition 2: 
Cache L2_bank_004:
MSHR contents

Cache L2_bank_005:
MSHR contents

In Dram Latency Queue (total = 0): 
DRAM[2]: 16 bks, busW=4 BL=8 CL=12, tRRD=2 tCCD=6, tRCD=12 tRAS=28 tRP=12 tRC=40
n_cmd=280935 n_nop=265268 n_act=1436 n_pre=1420 n_req=7249 n_rd=8196 n_write=4615 bw_util=0.0912
n_activity=112443 dram_eff=0.2279
bk0: 516a 274176i bk1: 512a 274987i bk2: 512a 274240i bk3: 512a 274047i bk4: 512a 274726i bk5: 512a 274838i bk6: 512a 274902i bk7: 512a 274327i bk8: 512a 274442i bk9: 512a 275125i bk10: 512a 274951i bk11: 512a 275379i bk12: 512a 274977i bk13: 512a 275573i bk14: 512a 275184i bk15: 512a 275405i 
dram_util_bins: 0 0 0 0 0 0 0 0 0 0
dram_eff_bins: 0 0 0 0 0 0 0 0 0 0
mrqq: max=16 avg=0.41605
Memory Partition 3: 
Cache L2_bank_006:
MSHR contents

Cache L2_bank_007:
MSHR contents

In Dram Latency Queue (total = 0): 
DRAM[3]: 16 bks, busW=4 BL=8 CL=12, tRRD=2 tCCD=6, tRCD=12 tRAS=28 tRP=12 tRC=40
n_cmd=280935 n_nop=265321 n_act=1426 n_pre=1410 n_req=7188 n_rd=8196 n_write=4582 bw_util=0.09097
n_activity=110908 dram_eff=0.2304
bk0: 516a 274505i bk1: 512a 274481i bk2: 512a 274608i bk3: 512a 274330i bk4: 512a 274444i bk5: 512a 274401i bk6: 512a 274652i bk7: 512a 274791i bk8: 512a 274381i bk9: 512a 275280i bk10: 512a 275066i bk11: 512a 275568i bk12: 512a 275300i bk13: 512a 275320i bk14: 512a 275430i bk15: 512a 275117i 
dram_util_bins: 0 0 0 0 0 0 0 0 0 0
dram_eff_bins: 0 0 0 0 0 0 0 0 0 0
mrqq: max=16 avg=0.373218
Memory Partition 4: 
Cache L2_bank_008:
MSHR contents

Cache L2_bank_009:
MSHR contents

In Dram Latency Queue (total = 0): 
DRAM[4]: 16 bks, busW=4 BL=8 CL=12, tRRD=2 tCCD=6, tRCD=12 tRAS=28 tRP=12 tRC=40
n_cmd=280935 n_nop=265127 n_act=1505 n_pre=1489 n_req=7247 n_rd=8196 n_write=4618 bw_util=0.09122
n_activity=113282 dram_eff=0.2262
bk0: 516a 274432i bk1: 512a 274246i bk2: 512a 273888i bk3: 512a 274256i bk4: 512a 274609i bk5: 512a 274606i bk6: 512a 274232i bk7: 512a 274542i bk8: 512a 274773i bk9: 512a 274394i bk10: 512a 275166i bk11: 512a 274826i bk12: 512a 275377i bk13: 512a 275322i bk14: 512a 275416i bk15: 512a 275248i 
dram_util_bins: 0 0 0 0 0 0 0 0 0 0
dram_eff_bins: 0 0 0 0 0 0 0 0 0 0
mrqq: max=16 avg=0.399299
Memory Partition 5: 
Cache L2_bank_010:
MSHR contents

Cache L2_bank_011:
MSHR contents

In Dram Latency Queue (total = 0): 
DRAM[5]: 16 bks, busW=4 BL=8 CL=12, tRRD=2 tCCD=6, tRCD=12 tRAS=28 tRP=12 tRC=40
n_cmd=280935 n_nop=265193 n_act=1495 n_pre=1479 n_req=7186 n_rd=8196 n_write=4572 bw_util=0.0909
n_activity=113060 dram_eff=0.2259
bk0: 516a 274674i bk1: 512a 274604i bk2: 512a 274186i bk3: 512a 274585i bk4: 512a 274314i bk5: 512a 274454i bk6: 512a 274372i bk7: 512a 274793i bk8: 512a 275231i bk9: 512a 274466i bk10: 512a 275254i bk11: 512a 275028i bk12: 512a 274892i bk13: 512a 275038i bk14: 512a 274844i bk15: 512a 275455i 
dram_util_bins: 0 0 0 0 0 0 0 0 0 0
dram_eff_bins: 0 0 0 0 0 0 0 0 0 0
mrqq: max=16 avg=0.370466

========= L2 cache stats =========
L2_cache_bank[0]: Access = 8414, Miss = 2050, Miss_rate = 0.244, Pending_hits = 1322, Reservation_fails = 204
L2_cache_bank[1]: Access = 9380, Miss = 2049, Miss_rate = 0.218, Pending_hits = 1172, Reservation_fails = 99
L2_cache_bank[2]: Access = 8912, Miss = 2050, Miss_rate = 0.230, Pending_hits = 1428, Reservation_fails = 186
L2_cache_bank[3]: Access = 9140, Miss = 2048, Miss_rate = 0.224, Pending_hits = 1213, Reservation_fails = 0
L2_cache_bank[4]: Access = 9079, Miss = 2050, Miss_rate = 0.226, Pending_hits = 1192, Reservation_fails = 178
L2_cache_bank[5]: Access = 8424, Miss = 2048, Miss_rate = 0.243, Pending_hits = 1333, Reservation_fails = 0
L2_cache_bank[6]: Access = 8844, Miss = 2050, Miss_rate = 0.232, Pending_hits = 1253, Reservation_fails = 170
L2_cache_bank[7]: Access = 8885, Miss = 2048, Miss_rate = 0.231, Pending_hits = 1388, Reservation_fails = 0
L2_cache_bank[8]: Access = 8713, Miss = 2050, Miss_rate = 0.235, Pending_hits = 1330, Reservation_fails = 187
L2_cache_bank[9]: Access = 9053, Miss = 2048, Miss_rate = 0.226, Pending_hits = 1202, Reservation_fails = 0
L2_cache_bank[10]: Access = 9233, Miss = 2050, Miss_rate = 0.222, Pending_hits = 1399, Reservation_fails = 165
L2_cache_bank[11]: Access = 8836, Miss = 2048, Miss_rate = 0.232, Pending_hits = 1246, Reservation_fails = 0
L2_total_cache_accesses = 106913
L2_total_cache_misses = 24589
L2_total_cache_miss_rate = 0.2300
L2_total_cache_pending_hits = 15478
L2_total_cache_reservation_fails = 1189
L2_total_cache_breakdown:
	L2_cache_stats_breakdown[GLOBAL_ACC_R][HIT] = 52764
	L2_cache_stats_breakdown[GLOBAL_ACC_R][HIT_RESERVED] = 10447
	L2_cache_stats_breakdown[GLOBAL_ACC_R][MISS] = 16384
	L2_cache_stats_breakdown[GLOBAL_ACC_W][HIT] = 13952
	L2_cache_stats_breakdown[GLOBAL_ACC_W][HIT_RESERVED] = 4992
	L2_cache_stats_breakdown[GLOBAL_ACC_W][MISS] = 8192
	L2_cache_stats_breakdown[GLOBAL_ACC_W][RESERVATION_FAIL] = 7
	L2_cache_stats_breakdown[INST_ACC_R][HIT] = 130
	L2_cache_stats_breakdown[INST_ACC_R][HIT_RESERVED] = 39
	L2_cache_stats_breakdown[INST_ACC_R][MISS] = 13
	L2_cache_stats_breakdown[INST_ACC_R][RESERVATION_FAIL] = 1182
L2_cache_data_port_util = 0.101
L2_cache_fill_port_util = 0.038

icnt_total_pkts_mem_to_simt=426021
icnt_total_pkts_simt_to_mem=161697
LD_mem_lat_dist  0 0 0 0 0 0 0 0 0 0 0 0 0 0 0 0 0 0 0 0 0 0 0 0 0 0 0
ST_mem_lat_dist  0 0 0 0 0 0 0 0 0 0 0 0 0 0 0 0 0 0 0 0 0 0 0 0 0 0 0
----------------------------Interconnect-DETAILS--------------------------------
Class 0:
Packet latency average = 15.0162
	minimum = 6
	maximum = 168
Network latency average = 12.7502
	minimum = 6
	maximum = 125
Slowest packet = 4155
Flit latency average = 12.2097
	minimum = 6
	maximum = 123
Slowest flit = 12549
Fragmentation average = 0
	minimum = 0
	maximum = 0
Injected packet rate average = 0.0381833
	minimum = 0.0338187 (at node 11)
	maximum = 0.0435501 (at node 15)
Accepted packet rate average = 0.0381833
	minimum = 0.0338187 (at node 11)
	maximum = 0.0435501 (at node 15)
Injected flit rate average = 0.10495
	minimum = 0.0525294 (at node 1)
	maximum = 0.17342 (at node 15)
Accepted flit rate average= 0.10495
	minimum = 0.0604827 (at node 19)
	maximum = 0.147281 (at node 5)
Injected packet length average = 2.74858
Accepted packet length average = 2.74858
Total in-flight flits = 0 (0 measured)
====== Overall Traffic Statistics ======
====== Traffic class 0 ======
Packet latency average = 15.0162 (1 samples)
	minimum = 6 (1 samples)
	maximum = 168 (1 samples)
Network latency average = 12.7502 (1 samples)
	minimum = 6 (1 samples)
	maximum = 125 (1 samples)
Flit latency average = 12.2097 (1 samples)
	minimum = 6 (1 samples)
	maximum = 123 (1 samples)
Fragmentation average = 0 (1 samples)
	minimum = 0 (1 samples)
	maximum = 0 (1 samples)
Injected packet rate average = 0.0381833 (1 samples)
	minimum = 0.0338187 (1 samples)
	maximum = 0.0435501 (1 samples)
Accepted packet rate average = 0.0381833 (1 samples)
	minimum = 0.0338187 (1 samples)
	maximum = 0.0435501 (1 samples)
Injected flit rate average = 0.10495 (1 samples)
	minimum = 0.0525294 (1 samples)
	maximum = 0.17342 (1 samples)
Accepted flit rate average = 0.10495 (1 samples)
	minimum = 0.0604827 (1 samples)
	maximum = 0.147281 (1 samples)
Injected packet size average = 2.74858 (1 samples)
Accepted packet size average = 2.74858 (1 samples)
Hops average = 1 (1 samples)
----------------------------END-of-Interconnect-DETAILS-------------------------


gpgpu_simulation_time = 0 days, 0 hrs, 2 min, 17 sec (137 sec)
gpgpu_simulation_rate = 650245 (inst/sec)
gpgpu_simulation_rate = 1572 (cycle/sec)
Ending simulation
