

        *** GPGPU-Sim Simulator Version 3.2.2  [build 17315] ***


GPGPU-Sim PTX: simulation mode 0 (can change with PTX_SIM_MODE_FUNC environment variable:
               1=functional simulation only, 0=detailed performance simulator)
GPGPU-Sim: Configuration options:

-network_mode                           1 # Interconnection network mode
-inter_config_file   config_fermi_islip.icnt # Interconnection network config file
-gpgpu_ptx_use_cuobjdump                    1 # Use cuobjdump to extract ptx and sass from binaries
-gpgpu_experimental_lib_support                    0 # Try to extract code from cuda libraries [Broken because of unknown cudaGetExportTable]
-gpgpu_ptx_convert_to_ptxplus                    1 # Convert SASS (native ISA) to ptxplus and run ptxplus
-gpgpu_ptx_force_max_capability                   20 # Force maximum compute capability
-gpgpu_ptx_inst_debug_to_file                    0 # Dump executed instructions' debug information to file
-gpgpu_ptx_inst_debug_file       inst_debug.txt # Executed instructions' debug output file
-gpgpu_ptx_inst_debug_thread_uid                    1 # Thread UID for executed instructions' debug output
-gpgpu_simd_model                       1 # 1 = post-dominator
-gpgpu_shader_core_pipeline              1536:32 # shader core pipeline config, i.e., {<nthread>:<warpsize>}
-gpgpu_tex_cache:l1  4:128:24,L:R:m:N,F:128:4,128:2 # per-shader L1 texture cache  (READ-ONLY) config  {<nsets>:<bsize>:<assoc>,<rep>:<wr>:<alloc>:<wr_alloc>,<mshr>:<N>:<merge>,<mq>:<rf>}
-gpgpu_const_cache:l1 64:64:2,L:R:f:N,A:2:32,4 # per-shader L1 constant memory cache  (READ-ONLY) config  {<nsets>:<bsize>:<assoc>,<rep>:<wr>:<alloc>:<wr_alloc>,<mshr>:<N>:<merge>,<mq>} 
-gpgpu_cache:il1     4:128:4,L:R:f:N,A:2:32,4 # shader L1 instruction cache config  {<nsets>:<bsize>:<assoc>,<rep>:<wr>:<alloc>:<wr_alloc>,<mshr>:<N>:<merge>,<mq>} 
-gpgpu_cache:dl1     32:128:4,L:L:m:N,A:32:8,8 # per-shader L1 data cache config  {<nsets>:<bsize>:<assoc>,<rep>:<wr>:<alloc>:<wr_alloc>,<mshr>:<N>:<merge>,<mq> | none}
-gpgpu_cache:dl1PrefL1                 none # per-shader L1 data cache config  {<nsets>:<bsize>:<assoc>,<rep>:<wr>:<alloc>:<wr_alloc>,<mshr>:<N>:<merge>,<mq> | none}
-gpgpu_cache:dl1PreShared                 none # per-shader L1 data cache config  {<nsets>:<bsize>:<assoc>,<rep>:<wr>:<alloc>:<wr_alloc>,<mshr>:<N>:<merge>,<mq> | none}
-gmem_skip_L1D                          0 # global memory access skip L1D cache (implements -Xptxas -dlcm=cg, default=no skip)
-gpgpu_perfect_mem                      0 # enable perfect memory mode (no cache miss)
-n_regfile_gating_group                    4 # group of lanes that should be read/written together)
-gpgpu_clock_gated_reg_file                    0 # enable clock gated reg file for power calculations
-gpgpu_clock_gated_lanes                    0 # enable clock gated lanes for power calculations
-gpgpu_shader_registers                32768 # Number of registers per shader core. Limits number of concurrent CTAs. (default 8192)
-gpgpu_shader_cta                       8 # Maximum number of concurrent CTAs in shader (default 8)
-gpgpu_n_clusters                      14 # number of processing clusters
-gpgpu_n_cores_per_cluster                    1 # number of simd cores per cluster
-gpgpu_n_cluster_ejection_buffer_size                    8 # number of packets in ejection buffer
-gpgpu_n_ldst_response_buffer_size                    2 # number of response packets in ld/st unit ejection buffer
-gpgpu_shmem_size                   16384 # Size of shared memory per shader core (default 16kB)
-gpgpu_shmem_size                   16384 # Size of shared memory per shader core (default 16kB)
-gpgpu_shmem_size_PrefL1                16384 # Size of shared memory per shader core (default 16kB)
-gpgpu_shmem_size_PrefShared                16384 # Size of shared memory per shader core (default 16kB)
-gpgpu_shmem_num_banks                   32 # Number of banks in the shared memory in each shader core (default 16)
-gpgpu_shmem_limited_broadcast                    0 # Limit shared memory to do one broadcast per cycle (default on)
-gpgpu_shmem_warp_parts                    1 # Number of portions a warp is divided into for shared memory bank conflict check 
-gpgpu_warpdistro_shader                   -1 # Specify which shader core to collect the warp size distribution from
-gpgpu_warp_issue_shader                    0 # Specify which shader core to collect the warp issue distribution from
-gpgpu_local_mem_map                    1 # Mapping from local memory space address to simulated GPU physical address space (default = enabled)
-gpgpu_num_reg_banks                   16 # Number of register banks (default = 8)
-gpgpu_reg_bank_use_warp_id                    0 # Use warp ID in mapping registers to banks (default = off)
-gpgpu_operand_collector_num_units_sp                    6 # number of collector units (default = 4)
-gpgpu_operand_collector_num_units_sfu                    8 # number of collector units (default = 4)
-gpgpu_operand_collector_num_units_mem                    2 # number of collector units (default = 2)
-gpgpu_operand_collector_num_units_gen                    0 # number of collector units (default = 0)
-gpgpu_operand_collector_num_in_ports_sp                    2 # number of collector unit in ports (default = 1)
-gpgpu_operand_collector_num_in_ports_sfu                    1 # number of collector unit in ports (default = 1)
-gpgpu_operand_collector_num_in_ports_mem                    1 # number of collector unit in ports (default = 1)
-gpgpu_operand_collector_num_in_ports_gen                    0 # number of collector unit in ports (default = 0)
-gpgpu_operand_collector_num_out_ports_sp                    2 # number of collector unit in ports (default = 1)
-gpgpu_operand_collector_num_out_ports_sfu                    1 # number of collector unit in ports (default = 1)
-gpgpu_operand_collector_num_out_ports_mem                    1 # number of collector unit in ports (default = 1)
-gpgpu_operand_collector_num_out_ports_gen                    0 # number of collector unit in ports (default = 0)
-gpgpu_coalesce_arch                   13 # Coalescing arch (default = 13, anything else is off for now)
-gpgpu_num_sched_per_core                    2 # Number of warp schedulers per core
-gpgpu_max_insn_issue_per_warp                    1 # Max number of instructions that can be issued per warp in one cycle by scheduler
-gpgpu_simt_core_sim_order                    1 # Select the simulation order of cores in a cluster (0=Fix, 1=Round-Robin)
-gpgpu_pipeline_widths        2,1,1,2,1,1,2 # Pipeline widths ID_OC_SP,ID_OC_SFU,ID_OC_MEM,OC_EX_SP,OC_EX_SFU,OC_EX_MEM,EX_WB
-gpgpu_num_sp_units                     2 # Number of SP units (default=1)
-gpgpu_num_sfu_units                    1 # Number of SF units (default=1)
-gpgpu_num_mem_units                    1 # Number if ldst units (default=1) WARNING: not hooked up to anything
-gpgpu_scheduler                      owf # Scheduler configuration: < lrr | gto | two_level_active > If two_level_active:<num_active_warps>:<inner_prioritization>:<outer_prioritization>For complete list of prioritization values see shader.h enum scheduler_prioritization_typeDefault: gto
-gpgpu_reg_sharing_approach                    4 # Approach used register sharing (default=3)
-gpgpu_reg_share_thersh_hold                  0.1 # Thresh hold factor used for sharing (default=0.5)
-gpgpu_reg_optimization                    4 # Optimization to be applied (default=6 which is none)
-gpgpu_dram_scheduler                    1 # 0 = fifo, 1 = FR-FCFS (defaul)
-gpgpu_dram_partition_queues              8:8:8:8 # i2$:$2d:d2$:$2i
-l2_ideal                               0 # Use a ideal L2 cache that always hit
-gpgpu_cache:dl2     64:128:8,L:B:m:W,A:32:4,4:0,32 # unified banked L2 data cache config  {<nsets>:<bsize>:<assoc>,<rep>:<wr>:<alloc>:<wr_alloc>,<mshr>:<N>:<merge>,<mq>}
-gpgpu_cache:dl2_texture_only                    0 # L2 cache used for texture only
-gpgpu_n_mem                            6 # number of memory modules (e.g. memory controllers) in gpu
-gpgpu_n_sub_partition_per_mchannel                    2 # number of memory subpartition in each memory module
-gpgpu_n_mem_per_ctrlr                    2 # number of memory chips per memory controller
-gpgpu_memlatency_stat                    0 # track and display latency statistics 0x2 enables MC, 0x4 enables queue logs
-gpgpu_frfcfs_dram_sched_queue_size                   16 # 0 = unlimited (default); # entries per chip
-gpgpu_dram_return_queue_size                  114 # 0 = unlimited (default); # entries per chip
-gpgpu_dram_buswidth                    4 # default = 4 bytes (8 bytes per cycle at DDR)
-gpgpu_dram_burst_length                    8 # Burst length of each DRAM request (default = 4 data bus cycle)
-dram_data_command_freq_ratio                    4 # Frequency ratio between DRAM data bus and command bus (default = 2 times, i.e. DDR)
-gpgpu_dram_timing_opt nbk=16:CCD=2:RRD=6:RCD=12:RAS=28:RP=12:RC=40: CL=12:WL=4:CDLR=5:WR=12:nbkgrp=4:CCDL=3:RTPL=2 # DRAM timing parameters = {nbk:tCCD:tRRD:tRCD:tRAS:tRP:tRC:CL:WL:tCDLR:tWR:nbkgrp:tCCDL:tRTPL}
-rop_latency                          120 # ROP queue latency (default 85)
-dram_latency                         100 # DRAM latency (default 30)
-gpgpu_mem_addr_mapping dramid@8;00000000.00000000.00000000.00000000.0000RRRR.RRRRRRRR.BBBCCCCB.CCSSSSSS # mapping memory address to dram model {dramid@<start bit>;<memory address map>}
-gpgpu_mem_addr_test                    0 # run sweep test to check address mapping for aliased address
-gpgpu_mem_address_mask                    1 # 0 = old addressing mask, 1 = new addressing mask, 2 = new add. mask + flipped bank sel and chip sel bits
-gpuwattch_xml_file         gpuwattch.xml # GPUWattch XML file
-power_simulation_enabled                    0 # Turn on power simulator (1=On, 0=Off)
-power_per_cycle_dump                    0 # Dump detailed power output each cycle
-power_trace_enabled                    0 # produce a file for the power trace (1=On, 0=Off)
-power_trace_zlevel                     6 # Compression level of the power trace output log (0=no comp, 9=highest)
-steady_power_levels_enabled                    0 # produce a file for the steady power levels (1=On, 0=Off)
-steady_state_definition                  8:4 # allowed deviation:number of samples
-gpgpu_max_cycle                        0 # terminates gpu simulation early (0 = no limit)
-gpgpu_max_insn                         0 # terminates gpu simulation early (0 = no limit)
-gpgpu_max_cta                          0 # terminates gpu simulation early (0 = no limit)
-gpgpu_runtime_stat             5000000:0 # display runtime statistics such as dram utilization {<freq>:<flag>}
-liveness_message_freq                    1 # Minimum number of seconds between simulation liveness messages (0 = always print)
-gpgpu_flush_l1_cache                    0 # Flush L1 cache at the end of each kernel call
-gpgpu_flush_l2_cache                    0 # Flush L2 cache at the end of each kernel call
-gpgpu_deadlock_detect                    1 # Stop the simulation at deadlock (1=on (default), 0=off)
-gpgpu_ptx_instruction_classification                    0 # if enabled will classify ptx instruction types per kernel (Max 255 kernels now)
-gpgpu_ptx_sim_mode                     0 # Select between Performance (default) or Functional simulation (1)
-gpgpu_clock_domains 575.0:575.0:575.0:750.0 # Clock Domain Frequencies in MhZ {<Core Clock>:<ICNT Clock>:<L2 Clock>:<DRAM Clock>}
-gpgpu_max_concurrent_kernel                    8 # maximum kernels that can run concurrently on GPU
-gpgpu_cflog_interval                    0 # Interval between each snapshot in control flow logger
-visualizer_enabled                     0 # Turn on visualizer output (1=On, 0=Off)
-visualizer_outputfile                 NULL # Specifies the output log file for visualizer
-visualizer_zlevel                      6 # Compression level of the visualizer output log (0=no comp, 9=highest)
-trace_enabled                          0 # Turn on traces
-trace_components                    none # comma seperated list of traces to enable. Complete list found in trace_streams.tup. Default none
-trace_sampling_core                    0 # The core which is printed using CORE_DPRINTF. Default 0
-trace_sampling_memory_partition                   -1 # The memory partition which is printed using MEMPART_DPRINTF. Default -1 (i.e. all)
-enable_ptx_file_line_stats                    0 # Turn on PTX source line statistic profiling. (1 = On)
-ptx_line_stats_filename gpgpu_inst_stats.txt # Output file for PTX source line statistics.
-save_embedded_ptx                      0 # saves ptx files embedded in binary as <n>.ptx
-keep                                   0 # keep intermediate files created by GPGPU-Sim when interfacing with external programs
-gpgpu_ptx_save_converted_ptxplus                    1 # Saved converted ptxplus to a file
-ptx_opcode_latency_int         4,13,4,5,145 # Opcode latencies for integers <ADD,MAX,MUL,MAD,DIV>Default 1,1,19,25,145
-ptx_opcode_latency_fp          4,13,4,5,39 # Opcode latencies for single precision floating points <ADD,MAX,MUL,MAD,DIV>Default 1,1,1,1,30
-ptx_opcode_latency_dp         8,19,8,8,330 # Opcode latencies for double precision floating points <ADD,MAX,MUL,MAD,DIV>Default 8,8,8,8,335
-ptx_opcode_initiation_int            1,2,2,1,8 # Opcode initiation intervals for integers <ADD,MAX,MUL,MAD,DIV>Default 1,1,4,4,32
-ptx_opcode_initiation_fp            1,2,1,1,4 # Opcode initiation intervals for single precision floating points <ADD,MAX,MUL,MAD,DIV>Default 1,1,1,1,5
-ptx_opcode_initiation_dp         8,16,8,8,130 # Opcode initiation intervals for double precision floating points <ADD,MAX,MUL,MAD,DIV>Default 8,8,8,8,130
DRAM Timing Options:
nbk                                    16 # number of banks
CCD                                     2 # column to column delay
RRD                                     6 # minimal delay between activation of rows in different banks
RCD                                    12 # row to column delay
RAS                                    28 # time needed to activate row
RP                                     12 # time needed to precharge (deactivate) row
RC                                     40 # row cycle time
CDLR                                    5 # switching from write to read (changes tWTR)
WR                                     12 # last data-in to row precharge
CL                                     12 # CAS latency
WL                                      4 # Write latency
nbkgrp                                  4 # number of bank groups
CCDL                                    3 # column to column delay between accesses to different bank groups
RTPL                                    2 # read to precharge delay between accesses to different bank groups
Total number of memory sub partition = 12
addr_dec_mask[CHIP]  = 0000000000000000 	high:64 low:0
addr_dec_mask[BK]    = 000000000000e100 	high:16 low:8
addr_dec_mask[ROW]   = 000000000fff0000 	high:28 low:16
addr_dec_mask[COL]   = 0000000000001eff 	high:13 low:0
addr_dec_mask[BURST] = 000000000000003f 	high:6 low:0
sub_partition_id_mask = 0000000000000100
GPGPU-Sim uArch: clock freqs: 575000000.000000:575000000.000000:575000000.000000:750000000.000000
GPGPU-Sim uArch: clock periods: 0.00000000173913043478:0.00000000173913043478:0.00000000173913043478:0.00000000133333333333
*** Initializing Memory Statistics ***
GPGPU-Sim uArch: interconnect node map (shaderID+MemID to icntID)
GPGPU-Sim uArch: Memory nodes ID start from index: 14
GPGPU-Sim uArch:    0   1   2   3   4
GPGPU-Sim uArch:    5   6   7   8   9
GPGPU-Sim uArch:   10  11  12  13  14
GPGPU-Sim uArch:   15  16  17  18  19
GPGPU-Sim uArch:   20  21  22  23  24
GPGPU-Sim uArch:   25
GPGPU-Sim uArch: interconnect node reverse map (icntID to shaderID+MemID)
GPGPU-Sim uArch: Memory nodes start from ID: 14
GPGPU-Sim uArch:    0   1   2   3   4
GPGPU-Sim uArch:    5   6   7   8   9
GPGPU-Sim uArch:   10  11  12  13  14
GPGPU-Sim uArch:   15  16  17  18  19
GPGPU-Sim uArch:   20  21  22  23  24
GPGPU-Sim uArch:   25
6c52cc5252f2b80c99fb6f8cff8277d8  /home/vishwesh/Desktop/ToRakesh/Benchmarks/rodinia_2.4/cuda/hotspot/hotspot
GPGPU-Sim uArch: performance model initialization complete.
GPGPU-Sim PTX: __cudaRegisterFatBinary, fat_cubin_handle = 1, filename=hotspot.cu
self exe links to: /home/vishwesh/Desktop/ToRakesh/Benchmarks/rodinia_2.4/cuda/hotspot/hotspot
Running md5sum using "md5sum /home/vishwesh/Desktop/ToRakesh/Benchmarks/rodinia_2.4/cuda/hotspot/hotspot "
Running cuobjdump using "$CUDA_INSTALL_PATH/bin/cuobjdump -ptx -elf -sass /home/vishwesh/Desktop/ToRakesh/Benchmarks/rodinia_2.4/cuda/hotspot/hotspot > _cuobjdump_complete_output_9QVxJJ"
Parsing file _cuobjdump_complete_output_9QVxJJ
######### cuobjdump parser ########
## Adding new section PTX
Adding ptx filename: _cuobjdump_1.ptx
Adding arch: sm_10
Adding identifier: hotspot.cu
## Adding new section ELF
Adding arch: sm_10
Adding identifier: hotspot.cu
Done parsing!!!
GPGPU-Sim: WARNING: Capability >= 20 are not supported in PTXPlus
	Setting forced_max_capability to 19
GPGPU-Sim PTX: __cudaRegisterFunction _Z14calculate_tempiPfS_S_iiiiffffff : hostFun 0x0x401bb9, fat_cubin_handle = 1
GPGPU-Sim PTX: converting EMBEDDED .ptx file to ptxplus 
GPGPU-Sim PTX: DONE converting EMBEDDED .ptx file to ptxplus 
GPGPU-Sim PTX: allocating constant region for "constant1_Z14calculate_tempiPfS_S_iiiiffffff" from 0x100 to 0x114 (global memory space) 1
GPGPU-Sim PTX: PTX uses two scalar type intruction with literal operand.
GPGPU-Sim PTX: instruction assembly for function '_Z14calculate_tempiPfS_S_iiiiffffff'...   done.
GPGPU-Sim PTX: finding reconvergence points for '_Z14calculate_tempiPfS_S_iiiiffffff'...
GPGPU-Sim PTX: Warning detected predicated return/exit.
GPGPU-Sim PTX: Finding dominators for '_Z14calculate_tempiPfS_S_iiiiffffff'...
GPGPU-Sim PTX: Finding immediate dominators for '_Z14calculate_tempiPfS_S_iiiiffffff'...
GPGPU-Sim PTX: Finding postdominators for '_Z14calculate_tempiPfS_S_iiiiffffff'...
GPGPU-Sim PTX: Finding immediate postdominators for '_Z14calculate_tempiPfS_S_iiiiffffff'...
GPGPU-Sim PTX: pre-decoding instructions for '_Z14calculate_tempiPfS_S_iiiiffffff'...
GPGPU-Sim PTX: reconvergence points for _Z14calculate_tempiPfS_S_iiiiffffff...
GPGPU-Sim PTX:  1 (potential) branch divergence @  PC=0x060 (_1.ptx:88) @$p0.sf bra l0x00000158;
GPGPU-Sim PTX:    immediate post dominator      @  PC=0x158 (_1.ptx:120) l0x00000158: nop;
GPGPU-Sim PTX:  2 (potential) branch divergence @  PC=0x078 (_1.ptx:91) @$p0.ne bra l0x00000158;
GPGPU-Sim PTX:    immediate post dominator      @  PC=0x158 (_1.ptx:120) l0x00000158: nop;
GPGPU-Sim PTX:  3 (potential) branch divergence @  PC=0x0c0 (_1.ptx:100) @$p0.sf bra l0x00000158;
GPGPU-Sim PTX:    immediate post dominator      @  PC=0x158 (_1.ptx:120) l0x00000158: nop;
GPGPU-Sim PTX:  4 (potential) branch divergence @  PC=0x0d8 (_1.ptx:103) @$p0.ne bra l0x00000158;
GPGPU-Sim PTX:    immediate post dominator      @  PC=0x158 (_1.ptx:120) l0x00000158: nop;
GPGPU-Sim PTX:  5 (potential) branch divergence @  PC=0x170 (_1.ptx:123) @$p0.ne bra l0x00000530;
GPGPU-Sim PTX:    immediate post dominator      @  PC=0x558 (_1.ptx:251) l0x00000558: @$p0.eq retp;
GPGPU-Sim PTX:  6 (potential) branch divergence @  PC=0x308 (_1.ptx:176) @$p0.ne bra l0x000004a8;
GPGPU-Sim PTX:    immediate post dominator      @  PC=0x4a8 (_1.ptx:229) l0x000004a8: nop;
GPGPU-Sim PTX:  7 (potential) branch divergence @  PC=0x320 (_1.ptx:179) @$p0.ne bra l0x000004a8;
GPGPU-Sim PTX:    immediate post dominator      @  PC=0x4a8 (_1.ptx:229) l0x000004a8: nop;
GPGPU-Sim PTX:  8 (potential) branch divergence @  PC=0x330 (_1.ptx:181) @$p0.ne bra l0x000004a8;
GPGPU-Sim PTX:    immediate post dominator      @  PC=0x4a8 (_1.ptx:229) l0x000004a8: nop;
GPGPU-Sim PTX:  9 (potential) branch divergence @  PC=0x340 (_1.ptx:183) @$p0.ne bra l0x000004a8;
GPGPU-Sim PTX:    immediate post dominator      @  PC=0x4a8 (_1.ptx:229) l0x000004a8: nop;
GPGPU-Sim PTX: 10 (potential) branch divergence @  PC=0x350 (_1.ptx:185) @$p0.ne bra l0x000004a8;
GPGPU-Sim PTX:    immediate post dominator      @  PC=0x4a8 (_1.ptx:229) l0x000004a8: nop;
GPGPU-Sim PTX: 11 (potential) branch divergence @  PC=0x360 (_1.ptx:187) @$p0.ne bra l0x000004a8;
GPGPU-Sim PTX:    immediate post dominator      @  PC=0x4a8 (_1.ptx:229) l0x000004a8: nop;
GPGPU-Sim PTX: 12 (potential) branch divergence @  PC=0x370 (_1.ptx:189) @$p0.ne bra l0x000004a8;
GPGPU-Sim PTX:    immediate post dominator      @  PC=0x4a8 (_1.ptx:229) l0x000004a8: nop;
GPGPU-Sim PTX: 13 (potential) branch divergence @  PC=0x380 (_1.ptx:191) @$p0.ne bra l0x000004a8;
GPGPU-Sim PTX:    immediate post dominator      @  PC=0x4a8 (_1.ptx:229) l0x000004a8: nop;
GPGPU-Sim PTX: 14 (potential) branch divergence @  PC=0x4c0 (_1.ptx:232) @$p0.ne bra l0x00000548;
GPGPU-Sim PTX:    immediate post dominator      @  PC=0x558 (_1.ptx:251) l0x00000558: @$p0.eq retp;
GPGPU-Sim PTX: 15 (potential) branch divergence @  PC=0x520 (_1.ptx:244) @$p1.ne bra l0x000002e8;
GPGPU-Sim PTX:    immediate post dominator      @  PC=0x558 (_1.ptx:251) l0x00000558: @$p0.eq retp;
GPGPU-Sim PTX: 16 (potential) branch divergence @  PC=0x528 (_1.ptx:245) bra l0x00000558;
GPGPU-Sim PTX:    immediate post dominator      @  PC=0x558 (_1.ptx:251) l0x00000558: @$p0.eq retp;
GPGPU-Sim PTX: 17 (potential) branch divergence @  PC=0x540 (_1.ptx:248) bra l0x00000558;
GPGPU-Sim PTX:    immediate post dominator      @  PC=0x558 (_1.ptx:251) l0x00000558: @$p0.eq retp;
GPGPU-Sim PTX: 18 (potential) branch divergence @  PC=0x550 (_1.ptx:250) bra l0x00000558;
GPGPU-Sim PTX:    immediate post dominator      @  PC=0x558 (_1.ptx:251) l0x00000558: @$p0.eq retp;
GPGPU-Sim PTX: ... end of reconvergence points for _Z14calculate_tempiPfS_S_iiiiffffff
GPGPU-Sim PTX: ... done pre-decoding instructions for '_Z14calculate_tempiPfS_S_iiiiffffff'.
GPGPU-Sim PTX: finished parsing EMBEDDED .ptx file _1.ptx
Adding _cuobjdump_1.ptx with cubin handle 1
GPGPU-Sim PTX: extracting embedded .ptx to temporary file "_ptx_kFzoDa"
Running: cat _ptx_kFzoDa | sed 's/.version 1.5/.version 1.4/' | sed 's/, texmode_independent//' | sed 's/\(\.extern \.const\[1\] .b8 \w\+\)\[\]/\1\[1\]/' | sed 's/const\[.\]/const\[0\]/g' > _ptx2_7WQfxB
GPGPU-Sim PTX: generating ptxinfo using "$CUDA_INSTALL_PATH/bin/ptxas --gpu-name=sm_20 -v _ptx2_7WQfxB --output-file  /dev/null 2> _ptx_kFzoDainfo"
GPGPU-Sim PTX: Kernel '_Z14calculate_tempiPfS_S_iiiiffffff' : regs=35, lmem=0, smem=3072, cmem=104
GPGPU-Sim PTX: removing ptxinfo using "rm -f _ptx_kFzoDa _ptx2_7WQfxB _ptx_kFzoDainfo"
GPGPU-Sim PTX: loading globals with explicit initializers... 
GPGPU-Sim PTX: finished loading globals (0 bytes total).
GPGPU-Sim PTX: loading constants with explicit initializers...  done.
pyramidHeight: 2
gridSize: [512, 512]
border:[2, 2]
blockGrid:[43, 43]
targetBlock:[12, 12]
Start computing the transient temperature

GPGPU-Sim PTX: cudaLaunch for 0x0x401bb9 (mode=performance simulation) on stream 0
GPGPU-Sim PTX: pushing kernel '_Z14calculate_tempiPfS_S_iiiiffffff' to stream 0, gridDim= (43,43,1) blockDim = (16,16,1) 
kernel '_Z14calculate_tempiPfS_S_iiiiffffff' transfer to GPU hardware scheduler
GPGPU-Sim uArch: Shader 1 bind to kernel 1 '_Z14calculate_tempiPfS_S_iiiiffffff'
GPGPU-Sim uArch: CTA/core = 5, limited by: shmem
Shared mode is : 1
GPGPU-Sim uArch: core:  1, cta: 0 initialized @(1,0)
GPGPU-Sim uArch: Shader 2 bind to kernel 1 '_Z14calculate_tempiPfS_S_iiiiffffff'
Shared mode is : 1
GPGPU-Sim uArch: core:  2, cta: 0 initialized @(1,0)
GPGPU-Sim uArch: Shader 3 bind to kernel 1 '_Z14calculate_tempiPfS_S_iiiiffffff'
Shared mode is : 1
GPGPU-Sim uArch: core:  3, cta: 0 initialized @(1,0)
GPGPU-Sim uArch: Shader 4 bind to kernel 1 '_Z14calculate_tempiPfS_S_iiiiffffff'
Shared mode is : 1
GPGPU-Sim uArch: core:  4, cta: 0 initialized @(1,0)
GPGPU-Sim uArch: Shader 5 bind to kernel 1 '_Z14calculate_tempiPfS_S_iiiiffffff'
Shared mode is : 1
GPGPU-Sim uArch: core:  5, cta: 0 initialized @(1,0)
GPGPU-Sim uArch: Shader 6 bind to kernel 1 '_Z14calculate_tempiPfS_S_iiiiffffff'
Shared mode is : 1
GPGPU-Sim uArch: core:  6, cta: 0 initialized @(1,0)
GPGPU-Sim uArch: Shader 7 bind to kernel 1 '_Z14calculate_tempiPfS_S_iiiiffffff'
Shared mode is : 1
GPGPU-Sim uArch: core:  7, cta: 0 initialized @(1,0)
GPGPU-Sim uArch: Shader 8 bind to kernel 1 '_Z14calculate_tempiPfS_S_iiiiffffff'
Shared mode is : 1
GPGPU-Sim uArch: core:  8, cta: 0 initialized @(1,0)
GPGPU-Sim uArch: Shader 9 bind to kernel 1 '_Z14calculate_tempiPfS_S_iiiiffffff'
Shared mode is : 1
GPGPU-Sim uArch: core:  9, cta: 0 initialized @(1,0)
GPGPU-Sim uArch: Shader 10 bind to kernel 1 '_Z14calculate_tempiPfS_S_iiiiffffff'
Shared mode is : 1
GPGPU-Sim uArch: core: 10, cta: 0 initialized @(1,0)
GPGPU-Sim uArch: Shader 11 bind to kernel 1 '_Z14calculate_tempiPfS_S_iiiiffffff'
Shared mode is : 1
GPGPU-Sim uArch: core: 11, cta: 0 initialized @(1,0)
GPGPU-Sim uArch: Shader 12 bind to kernel 1 '_Z14calculate_tempiPfS_S_iiiiffffff'
Shared mode is : 1
GPGPU-Sim uArch: core: 12, cta: 0 initialized @(1,0)
GPGPU-Sim uArch: Shader 13 bind to kernel 1 '_Z14calculate_tempiPfS_S_iiiiffffff'
Shared mode is : 1
GPGPU-Sim uArch: core: 13, cta: 0 initialized @(1,0)
GPGPU-Sim uArch: Shader 0 bind to kernel 1 '_Z14calculate_tempiPfS_S_iiiiffffff'
Shared mode is : 1
GPGPU-Sim uArch: core:  0, cta: 0 initialized @(1,0)
Shared mode is : 1
GPGPU-Sim uArch: core:  1, cta: 1 initialized @(2,0)
Shared mode is : 1
GPGPU-Sim uArch: core:  2, cta: 1 initialized @(2,0)
Shared mode is : 1
GPGPU-Sim uArch: core:  3, cta: 1 initialized @(2,0)
Shared mode is : 1
GPGPU-Sim uArch: core:  4, cta: 1 initialized @(2,0)
Shared mode is : 1
GPGPU-Sim uArch: core:  5, cta: 1 initialized @(2,0)
Shared mode is : 1
GPGPU-Sim uArch: core:  6, cta: 1 initialized @(2,0)
Shared mode is : 1
GPGPU-Sim uArch: core:  7, cta: 1 initialized @(2,0)
Shared mode is : 1
GPGPU-Sim uArch: core:  8, cta: 1 initialized @(2,0)
Shared mode is : 1
GPGPU-Sim uArch: core:  9, cta: 1 initialized @(2,0)
Shared mode is : 1
GPGPU-Sim uArch: core: 10, cta: 1 initialized @(2,0)
Shared mode is : 1
GPGPU-Sim uArch: core: 11, cta: 1 initialized @(2,0)
Shared mode is : 1
GPGPU-Sim uArch: core: 12, cta: 1 initialized @(2,0)
Shared mode is : 1
GPGPU-Sim uArch: core: 13, cta: 1 initialized @(2,0)
Shared mode is : 1
GPGPU-Sim uArch: core:  0, cta: 1 initialized @(2,0)
Shared mode is : 1
GPGPU-Sim uArch: core:  1, cta: 2 initialized @(3,0)
Shared mode is : 1
GPGPU-Sim uArch: core:  2, cta: 2 initialized @(3,0)
Shared mode is : 1
GPGPU-Sim uArch: core:  3, cta: 2 initialized @(3,0)
Shared mode is : 1
GPGPU-Sim uArch: core:  4, cta: 2 initialized @(3,0)
Shared mode is : 1
GPGPU-Sim uArch: core:  5, cta: 2 initialized @(3,0)
Shared mode is : 1
GPGPU-Sim uArch: core:  6, cta: 2 initialized @(3,0)
Shared mode is : 1
GPGPU-Sim uArch: core:  7, cta: 2 initialized @(3,0)
Shared mode is : 1
GPGPU-Sim uArch: core:  8, cta: 2 initialized @(3,0)
Shared mode is : 1
GPGPU-Sim uArch: core:  9, cta: 2 initialized @(3,0)
Shared mode is : 1
GPGPU-Sim uArch: core: 10, cta: 2 initialized @(3,0)
Shared mode is : 1
GPGPU-Sim uArch: core: 11, cta: 2 initialized @(3,0)
Shared mode is : 1
GPGPU-Sim uArch: core: 12, cta: 2 initialized @(3,0)
Shared mode is : 1
GPGPU-Sim uArch: core: 13, cta: 2 initialized @(3,0)
Shared mode is : 1
GPGPU-Sim uArch: core:  0, cta: 2 initialized @(3,0)
Shared mode is : 1
GPGPU-Sim uArch: core:  1, cta: 3 initialized @(4,0)
Shared mode is : 1
GPGPU-Sim uArch: core:  2, cta: 3 initialized @(4,0)
Shared mode is : 1
GPGPU-Sim uArch: core:  3, cta: 3 initialized @(4,0)
Shared mode is : 1
GPGPU-Sim uArch: core:  4, cta: 3 initialized @(4,0)
Shared mode is : 1
GPGPU-Sim uArch: core:  5, cta: 3 initialized @(4,0)
Shared mode is : 1
GPGPU-Sim uArch: core:  6, cta: 3 initialized @(4,0)
Shared mode is : 1
GPGPU-Sim uArch: core:  7, cta: 3 initialized @(4,0)
Shared mode is : 1
GPGPU-Sim uArch: core:  8, cta: 3 initialized @(4,0)
Shared mode is : 1
GPGPU-Sim uArch: core:  9, cta: 3 initialized @(4,0)
Shared mode is : 1
GPGPU-Sim uArch: core: 10, cta: 3 initialized @(4,0)
Shared mode is : 1
GPGPU-Sim uArch: core: 11, cta: 3 initialized @(4,0)
Shared mode is : 1
GPGPU-Sim uArch: core: 12, cta: 3 initialized @(4,0)
Shared mode is : 1
GPGPU-Sim uArch: core: 13, cta: 3 initialized @(4,0)
Shared mode is : 1
GPGPU-Sim uArch: core:  0, cta: 3 initialized @(4,0)
Shared mode is : 1
GPGPU-Sim uArch: core:  1, cta: 4 initialized @(5,0)
Shared mode is : 1
GPGPU-Sim uArch: core:  2, cta: 4 initialized @(5,0)
Shared mode is : 1
GPGPU-Sim uArch: core:  3, cta: 4 initialized @(5,0)
Shared mode is : 1
GPGPU-Sim uArch: core:  4, cta: 4 initialized @(5,0)
Shared mode is : 1
GPGPU-Sim uArch: core:  5, cta: 4 initialized @(5,0)
Shared mode is : 1
GPGPU-Sim uArch: core:  6, cta: 4 initialized @(5,0)
Shared mode is : 1
GPGPU-Sim uArch: core:  7, cta: 4 initialized @(5,0)
Shared mode is : 1
GPGPU-Sim uArch: core:  8, cta: 4 initialized @(5,0)
Shared mode is : 1
GPGPU-Sim uArch: core:  9, cta: 4 initialized @(5,0)
Shared mode is : 1
GPGPU-Sim uArch: core: 10, cta: 4 initialized @(5,0)
Shared mode is : 1
GPGPU-Sim uArch: core: 11, cta: 4 initialized @(5,0)
Shared mode is : 1
GPGPU-Sim uArch: core: 12, cta: 4 initialized @(5,0)
Shared mode is : 1
GPGPU-Sim uArch: core: 13, cta: 4 initialized @(5,0)
Shared mode is : 1
GPGPU-Sim uArch: core:  0, cta: 4 initialized @(5,0)
GPGPU-Sim PTX: WARNING (_1.ptx:122) ** reading undefined register '$r124' (cuid:0). Setting to 0X00000000. This is okay if you are simulating the native ISA
GPGPU-Sim uArch: Shader 8 finished CTA #0 (6160,0), 4 CTAs running
Shared mode is : 1
GPGPU-Sim uArch: core:  8, cta: 0 initialized @(6161,0)
GPGPU-Sim uArch: Shader 8 finished CTA #4 (6193,0), 4 CTAs running
Shared mode is : 1
GPGPU-Sim uArch: core:  8, cta: 4 initialized @(6194,0)
GPGPU-Sim uArch: Shader 4 finished CTA #0 (6255,0), 4 CTAs running
GPGPU-Sim uArch: Shader 7 finished CTA #0 (6255,0), 4 CTAs running
Shared mode is : 1
GPGPU-Sim uArch: core:  4, cta: 0 initialized @(6256,0)
Shared mode is : 1
GPGPU-Sim uArch: core:  7, cta: 0 initialized @(6256,0)
GPGPU-Sim uArch: Shader 10 finished CTA #0 (6297,0), 4 CTAs running
Shared mode is : 1
GPGPU-Sim uArch: core: 10, cta: 0 initialized @(6298,0)
GPGPU-Sim uArch: Shader 9 finished CTA #0 (6300,0), 4 CTAs running
Shared mode is : 1
GPGPU-Sim uArch: core:  9, cta: 0 initialized @(6301,0)
GPGPU-Sim uArch: Shader 5 finished CTA #0 (6311,0), 4 CTAs running
Shared mode is : 1
GPGPU-Sim uArch: core:  5, cta: 0 initialized @(6312,0)
GPGPU-Sim uArch: Shader 4 finished CTA #4 (6328,0), 4 CTAs running
Shared mode is : 1
GPGPU-Sim uArch: core:  4, cta: 4 initialized @(6329,0)
GPGPU-Sim uArch: Shader 12 finished CTA #0 (6351,0), 4 CTAs running
Shared mode is : 1
GPGPU-Sim uArch: core: 12, cta: 0 initialized @(6352,0)
GPGPU-Sim uArch: Shader 5 finished CTA #4 (6367,0), 4 CTAs running
Shared mode is : 1
GPGPU-Sim uArch: core:  5, cta: 4 initialized @(6368,0)
GPGPU-Sim uArch: Shader 2 finished CTA #0 (6375,0), 4 CTAs running
Shared mode is : 1
GPGPU-Sim uArch: core:  2, cta: 0 initialized @(6376,0)
GPGPU-Sim uArch: Shader 7 finished CTA #4 (6378,0), 4 CTAs running
Shared mode is : 1
GPGPU-Sim uArch: core:  7, cta: 4 initialized @(6379,0)
GPGPU-Sim uArch: Shader 6 finished CTA #4 (6409,0), 4 CTAs running
Shared mode is : 1
GPGPU-Sim uArch: core:  6, cta: 4 initialized @(6410,0)
GPGPU-Sim uArch: Shader 11 finished CTA #0 (6426,0), 4 CTAs running
Shared mode is : 1
GPGPU-Sim uArch: core: 11, cta: 0 initialized @(6427,0)
GPGPU-Sim uArch: Shader 1 finished CTA #0 (6432,0), 4 CTAs running
Shared mode is : 1
GPGPU-Sim uArch: core:  1, cta: 0 initialized @(6433,0)
GPGPU-Sim uArch: Shader 6 finished CTA #0 (6477,0), 4 CTAs running
Shared mode is : 1
GPGPU-Sim uArch: core:  6, cta: 0 initialized @(6478,0)
GPGPU-Sim uArch: Shader 11 finished CTA #4 (6503,0), 4 CTAs running
Shared mode is : 1
GPGPU-Sim uArch: core: 11, cta: 4 initialized @(6504,0)
GPGPU-Sim uArch: Shader 4 finished CTA #2 (6515,0), 4 CTAs running
Shared mode is : 1
GPGPU-Sim uArch: core:  4, cta: 2 initialized @(6516,0)
GPGPU-Sim uArch: Shader 11 finished CTA #2 (6543,0), 4 CTAs running
Shared mode is : 1
GPGPU-Sim uArch: core: 11, cta: 2 initialized @(6544,0)
GPGPU-Sim uArch: Shader 0 finished CTA #0 (6574,0), 4 CTAs running
Shared mode is : 1
GPGPU-Sim uArch: core:  0, cta: 0 initialized @(6575,0)
GPGPU-Sim uArch: Shader 13 finished CTA #0 (6576,0), 4 CTAs running
Shared mode is : 1
GPGPU-Sim uArch: core: 13, cta: 0 initialized @(6577,0)
GPGPU-Sim uArch: Shader 3 finished CTA #0 (6580,0), 4 CTAs running
Shared mode is : 1
GPGPU-Sim uArch: core:  3, cta: 0 initialized @(6581,0)
GPGPU-Sim uArch: Shader 12 finished CTA #4 (6582,0), 4 CTAs running
Shared mode is : 1
GPGPU-Sim uArch: core: 12, cta: 4 initialized @(6583,0)
GPGPU-Sim uArch: Shader 9 finished CTA #4 (6606,0), 4 CTAs running
Shared mode is : 1
GPGPU-Sim uArch: core:  9, cta: 4 initialized @(6607,0)
GPGPU-Sim uArch: Shader 10 finished CTA #4 (6612,0), 4 CTAs running
Shared mode is : 1
GPGPU-Sim uArch: core: 10, cta: 4 initialized @(6613,0)
GPGPU-Sim uArch: Shader 0 finished CTA #4 (6613,0), 4 CTAs running
Shared mode is : 1
GPGPU-Sim uArch: core:  0, cta: 4 initialized @(6614,0)
GPGPU-Sim uArch: Shader 13 finished CTA #4 (6614,0), 4 CTAs running
Shared mode is : 1
GPGPU-Sim uArch: core: 13, cta: 4 initialized @(6615,0)
GPGPU-Sim uArch: Shader 12 finished CTA #2 (6615,0), 4 CTAs running
Shared mode is : 1
GPGPU-Sim uArch: core: 12, cta: 2 initialized @(6616,0)
GPGPU-Sim uArch: Shader 13 finished CTA #2 (6623,0), 4 CTAs running
Shared mode is : 1
GPGPU-Sim uArch: core: 13, cta: 2 initialized @(6624,0)
GPGPU-Sim uArch: Shader 1 finished CTA #4 (6640,0), 4 CTAs running
Shared mode is : 1
GPGPU-Sim uArch: core:  1, cta: 4 initialized @(6641,0)
GPGPU-Sim uArch: Shader 2 finished CTA #4 (6710,0), 4 CTAs running
Shared mode is : 1
GPGPU-Sim uArch: core:  2, cta: 4 initialized @(6711,0)
GPGPU-Sim uArch: Shader 2 finished CTA #2 (6728,0), 4 CTAs running
Shared mode is : 1
GPGPU-Sim uArch: core:  2, cta: 2 initialized @(6729,0)
GPGPU-Sim uArch: Shader 1 finished CTA #2 (6740,0), 4 CTAs running
Shared mode is : 1
GPGPU-Sim uArch: core:  1, cta: 2 initialized @(6741,0)
GPGPU-Sim uArch: Shader 3 finished CTA #4 (6770,0), 4 CTAs running
Shared mode is : 1
GPGPU-Sim uArch: core:  3, cta: 4 initialized @(6771,0)
GPGPU-Sim uArch: Shader 3 finished CTA #2 (6779,0), 4 CTAs running
Shared mode is : 1
GPGPU-Sim uArch: core:  3, cta: 2 initialized @(6780,0)
GPGPU-Sim uArch: Shader 0 finished CTA #2 (6815,0), 4 CTAs running
Shared mode is : 1
GPGPU-Sim uArch: core:  0, cta: 2 initialized @(6816,0)
GPGPU-Sim uArch: Shader 9 finished CTA #2 (6843,0), 4 CTAs running
Shared mode is : 1
GPGPU-Sim uArch: core:  9, cta: 2 initialized @(6844,0)
GPGPU-Sim uArch: Shader 5 finished CTA #2 (6859,0), 4 CTAs running
Shared mode is : 1
GPGPU-Sim uArch: core:  5, cta: 2 initialized @(6860,0)
GPGPU-Sim uArch: Shader 8 finished CTA #2 (6891,0), 4 CTAs running
Shared mode is : 1
GPGPU-Sim uArch: core:  8, cta: 2 initialized @(6892,0)
GPGPU-Sim uArch: Shader 7 finished CTA #2 (6943,0), 4 CTAs running
Shared mode is : 1
GPGPU-Sim uArch: core:  7, cta: 2 initialized @(6944,0)
GPGPU-Sim uArch: Shader 10 finished CTA #2 (6947,0), 4 CTAs running
Shared mode is : 1
GPGPU-Sim uArch: core: 10, cta: 2 initialized @(6948,0)
GPGPU-Sim uArch: Shader 6 finished CTA #2 (6953,0), 4 CTAs running
Shared mode is : 1
GPGPU-Sim uArch: core:  6, cta: 2 initialized @(6954,0)
GPGPU-Sim uArch: Shader 2 finished CTA #1 (9278,0), 4 CTAs running
Shared mode is : 1
GPGPU-Sim uArch: core:  2, cta: 1 initialized @(9279,0)
GPGPU-Sim uArch: Shader 0 finished CTA #1 (9283,0), 4 CTAs running
Shared mode is : 1
GPGPU-Sim uArch: core:  0, cta: 1 initialized @(9284,0)
GPGPU-Sim uArch: Shader 6 finished CTA #1 (9409,0), 4 CTAs running
Shared mode is : 1
GPGPU-Sim uArch: core:  6, cta: 1 initialized @(9410,0)
GPGPU-Sim uArch: Shader 5 finished CTA #1 (9466,0), 4 CTAs running
Shared mode is : 1
GPGPU-Sim uArch: core:  5, cta: 1 initialized @(9467,0)
GPGPU-Sim uArch: Shader 7 finished CTA #1 (9479,0), 4 CTAs running
Shared mode is : 1
GPGPU-Sim uArch: core:  7, cta: 1 initialized @(9480,0)
GPGPU-Sim uArch: Shader 3 finished CTA #1 (9494,0), 4 CTAs running
Shared mode is : 1
GPGPU-Sim uArch: core:  3, cta: 1 initialized @(9495,0)
GPGPU-Sim uArch: Shader 13 finished CTA #1 (9515,0), 4 CTAs running
Shared mode is : 1
GPGPU-Sim uArch: core: 13, cta: 1 initialized @(9516,0)
GPGPU-Sim uArch: Shader 1 finished CTA #1 (9523,0), 4 CTAs running
Shared mode is : 1
GPGPU-Sim uArch: core:  1, cta: 1 initialized @(9524,0)
GPGPU-Sim uArch: Shader 4 finished CTA #1 (9545,0), 4 CTAs running
Shared mode is : 1
GPGPU-Sim uArch: core:  4, cta: 1 initialized @(9546,0)
GPGPU-Sim uArch: Shader 12 finished CTA #1 (9626,0), 4 CTAs running
Shared mode is : 1
GPGPU-Sim uArch: core: 12, cta: 1 initialized @(9627,0)
GPGPU-Sim uArch: Shader 9 finished CTA #1 (9652,0), 4 CTAs running
Shared mode is : 1
GPGPU-Sim uArch: core:  9, cta: 1 initialized @(9653,0)
GPGPU-Sim uArch: Shader 11 finished CTA #1 (9691,0), 4 CTAs running
Shared mode is : 1
GPGPU-Sim uArch: core: 11, cta: 1 initialized @(9692,0)
GPGPU-Sim uArch: Shader 10 finished CTA #1 (9719,0), 4 CTAs running
Shared mode is : 1
GPGPU-Sim uArch: core: 10, cta: 1 initialized @(9720,0)
GPGPU-Sim uArch: Shader 8 finished CTA #1 (9721,0), 4 CTAs running
Shared mode is : 1
GPGPU-Sim uArch: core:  8, cta: 1 initialized @(9722,0)
GPGPU-Sim uArch: Shader 1 finished CTA #3 (10445,0), 4 CTAs running
Shared mode is : 1
GPGPU-Sim uArch: core:  1, cta: 3 initialized @(10446,0)
GPGPU-Sim uArch: Shader 2 finished CTA #3 (10528,0), 4 CTAs running
Shared mode is : 1
GPGPU-Sim uArch: core:  2, cta: 3 initialized @(10529,0)
GPGPU-Sim uArch: Shader 3 finished CTA #3 (10610,0), 4 CTAs running
Shared mode is : 1
GPGPU-Sim uArch: core:  3, cta: 3 initialized @(10611,0)
GPGPU-Sim uArch: Shader 5 finished CTA #3 (10621,0), 4 CTAs running
Shared mode is : 1
GPGPU-Sim uArch: core:  5, cta: 3 initialized @(10622,0)
GPGPU-Sim uArch: Shader 6 finished CTA #3 (10634,0), 4 CTAs running
Shared mode is : 1
GPGPU-Sim uArch: core:  6, cta: 3 initialized @(10635,0)
GPGPU-Sim uArch: Shader 8 finished CTA #3 (10683,0), 4 CTAs running
GPGPU-Sim uArch: Shader 9 finished CTA #3 (10683,0), 4 CTAs running
Shared mode is : 1
GPGPU-Sim uArch: core:  8, cta: 3 initialized @(10684,0)
Shared mode is : 1
GPGPU-Sim uArch: core:  9, cta: 3 initialized @(10684,0)
GPGPU-Sim uArch: Shader 0 finished CTA #3 (10689,0), 4 CTAs running
Shared mode is : 1
GPGPU-Sim uArch: core:  0, cta: 3 initialized @(10690,0)
GPGPU-Sim uArch: Shader 13 finished CTA #3 (10695,0), 4 CTAs running
Shared mode is : 1
GPGPU-Sim uArch: core: 13, cta: 3 initialized @(10696,0)
GPGPU-Sim uArch: Shader 7 finished CTA #3 (10800,0), 4 CTAs running
Shared mode is : 1
GPGPU-Sim uArch: core:  7, cta: 3 initialized @(10801,0)
GPGPU-Sim uArch: Shader 12 finished CTA #3 (10855,0), 4 CTAs running
Shared mode is : 1
GPGPU-Sim uArch: core: 12, cta: 3 initialized @(10856,0)
GPGPU-Sim uArch: Shader 11 finished CTA #3 (10923,0), 4 CTAs running
Shared mode is : 1
GPGPU-Sim uArch: core: 11, cta: 3 initialized @(10924,0)
GPGPU-Sim uArch: Shader 10 finished CTA #3 (10959,0), 4 CTAs running
Shared mode is : 1
GPGPU-Sim uArch: core: 10, cta: 3 initialized @(10960,0)
GPGPU-Sim uArch: Shader 4 finished CTA #3 (11051,0), 4 CTAs running
Shared mode is : 1
GPGPU-Sim uArch: core:  4, cta: 3 initialized @(11052,0)
GPGPU-Sim uArch: Shader 6 finished CTA #4 (12391,0), 4 CTAs running
Shared mode is : 1
GPGPU-Sim uArch: core:  6, cta: 4 initialized @(12392,0)
GPGPU-Sim uArch: Shader 1 finished CTA #0 (12948,0), 4 CTAs running
Shared mode is : 1
GPGPU-Sim uArch: core:  1, cta: 0 initialized @(12949,0)
GPGPU-Sim uArch: Shader 2 finished CTA #4 (13018,0), 4 CTAs running
Shared mode is : 1
GPGPU-Sim uArch: core:  2, cta: 4 initialized @(13019,0)
GPGPU-Sim uArch: Shader 8 finished CTA #4 (13029,0), 4 CTAs running
Shared mode is : 1
GPGPU-Sim uArch: core:  8, cta: 4 initialized @(13030,0)
GPGPU-Sim uArch: Shader 5 finished CTA #4 (13056,0), 4 CTAs running
Shared mode is : 1
GPGPU-Sim uArch: core:  5, cta: 4 initialized @(13057,0)
GPGPU-Sim uArch: Shader 2 finished CTA #0 (13137,0), 4 CTAs running
Shared mode is : 1
GPGPU-Sim uArch: core:  2, cta: 0 initialized @(13138,0)
GPGPU-Sim uArch: Shader 3 finished CTA #4 (13219,0), 4 CTAs running
Shared mode is : 1
GPGPU-Sim uArch: core:  3, cta: 4 initialized @(13220,0)
GPGPU-Sim uArch: Shader 3 finished CTA #0 (13251,0), 4 CTAs running
Shared mode is : 1
GPGPU-Sim uArch: core:  3, cta: 0 initialized @(13252,0)
GPGPU-Sim uArch: Shader 8 finished CTA #0 (13255,0), 4 CTAs running
Shared mode is : 1
GPGPU-Sim uArch: core:  8, cta: 0 initialized @(13256,0)
GPGPU-Sim uArch: Shader 7 finished CTA #4 (13270,0), 4 CTAs running
Shared mode is : 1
GPGPU-Sim uArch: core:  7, cta: 4 initialized @(13271,0)
GPGPU-Sim uArch: Shader 9 finished CTA #0 (13305,0), 4 CTAs running
GPGPU-Sim uArch: Shader 13 finished CTA #0 (13305,0), 4 CTAs running
Shared mode is : 1
GPGPU-Sim uArch: core:  9, cta: 0 initialized @(13306,0)
Shared mode is : 1
GPGPU-Sim uArch: core: 13, cta: 0 initialized @(13306,0)
GPGPU-Sim uArch: Shader 0 finished CTA #4 (13306,0), 4 CTAs running
Shared mode is : 1
GPGPU-Sim uArch: core:  0, cta: 4 initialized @(13307,0)
GPGPU-Sim uArch: Shader 0 finished CTA #0 (13342,0), 4 CTAs running
Shared mode is : 1
GPGPU-Sim uArch: core:  0, cta: 0 initialized @(13343,0)
GPGPU-Sim uArch: Shader 12 finished CTA #0 (13359,0), 4 CTAs running
Shared mode is : 1
GPGPU-Sim uArch: core: 12, cta: 0 initialized @(13360,0)
GPGPU-Sim uArch: Shader 5 finished CTA #0 (13373,0), 4 CTAs running
Shared mode is : 1
GPGPU-Sim uArch: core:  5, cta: 0 initialized @(13374,0)
GPGPU-Sim uArch: Shader 1 finished CTA #4 (13379,0), 4 CTAs running
Shared mode is : 1
GPGPU-Sim uArch: core:  1, cta: 4 initialized @(13380,0)
GPGPU-Sim uArch: Shader 10 finished CTA #4 (13383,0), 4 CTAs running
Shared mode is : 1
GPGPU-Sim uArch: core: 10, cta: 4 initialized @(13384,0)
GPGPU-Sim uArch: Shader 13 finished CTA #4 (13473,0), 4 CTAs running
Shared mode is : 1
GPGPU-Sim uArch: core: 13, cta: 4 initialized @(13474,0)
GPGPU-Sim uArch: Shader 4 finished CTA #4 (13502,0), 4 CTAs running
Shared mode is : 1
GPGPU-Sim uArch: core:  4, cta: 4 initialized @(13503,0)
GPGPU-Sim uArch: Shader 11 finished CTA #0 (13573,0), 4 CTAs running
Shared mode is : 1
GPGPU-Sim uArch: core: 11, cta: 0 initialized @(13574,0)
GPGPU-Sim uArch: Shader 12 finished CTA #4 (13582,0), 4 CTAs running
Shared mode is : 1
GPGPU-Sim uArch: core: 12, cta: 4 initialized @(13583,0)
GPGPU-Sim uArch: Shader 9 finished CTA #4 (13645,0), 4 CTAs running
Shared mode is : 1
GPGPU-Sim uArch: core:  9, cta: 4 initialized @(13646,0)
GPGPU-Sim uArch: Shader 11 finished CTA #4 (13679,0), 4 CTAs running
Shared mode is : 1
GPGPU-Sim uArch: core: 11, cta: 4 initialized @(13680,0)
GPGPU-Sim uArch: Shader 7 finished CTA #0 (13695,0), 4 CTAs running
Shared mode is : 1
GPGPU-Sim uArch: core:  7, cta: 0 initialized @(13696,0)
GPGPU-Sim uArch: Shader 10 finished CTA #0 (13735,0), 4 CTAs running
Shared mode is : 1
GPGPU-Sim uArch: core: 10, cta: 0 initialized @(13736,0)
GPGPU-Sim uArch: Shader 6 finished CTA #0 (13817,0), 4 CTAs running
Shared mode is : 1
GPGPU-Sim uArch: core:  6, cta: 0 initialized @(13818,0)
GPGPU-Sim uArch: Shader 4 finished CTA #0 (13936,0), 4 CTAs running
Shared mode is : 1
GPGPU-Sim uArch: core:  4, cta: 0 initialized @(13937,0)
GPGPU-Sim uArch: Shader 6 finished CTA #2 (14055,0), 4 CTAs running
Shared mode is : 1
GPGPU-Sim uArch: core:  6, cta: 2 initialized @(14056,0)
GPGPU-Sim uArch: Shader 1 finished CTA #2 (14462,0), 4 CTAs running
Shared mode is : 1
GPGPU-Sim uArch: core:  1, cta: 2 initialized @(14463,0)
GPGPU-Sim uArch: Shader 3 finished CTA #2 (14533,0), 4 CTAs running
Shared mode is : 1
GPGPU-Sim uArch: core:  3, cta: 2 initialized @(14534,0)
GPGPU-Sim uArch: Shader 0 finished CTA #2 (14920,0), 4 CTAs running
Shared mode is : 1
GPGPU-Sim uArch: core:  0, cta: 2 initialized @(14921,0)
GPGPU-Sim uArch: Shader 2 finished CTA #2 (15636,0), 4 CTAs running
Shared mode is : 1
GPGPU-Sim uArch: core:  2, cta: 2 initialized @(15637,0)
GPGPU-Sim uArch: Shader 2 finished CTA #1 (15869,0), 4 CTAs running
Shared mode is : 1
GPGPU-Sim uArch: core:  2, cta: 1 initialized @(15870,0)
GPGPU-Sim uArch: Shader 6 finished CTA #1 (15988,0), 4 CTAs running
Shared mode is : 1
GPGPU-Sim uArch: core:  6, cta: 1 initialized @(15989,0)
GPGPU-Sim uArch: Shader 0 finished CTA #1 (16097,0), 4 CTAs running
Shared mode is : 1
GPGPU-Sim uArch: core:  0, cta: 1 initialized @(16098,0)
GPGPU-Sim uArch: Shader 10 finished CTA #2 (16238,0), 4 CTAs running
Shared mode is : 1
GPGPU-Sim uArch: core: 10, cta: 2 initialized @(16239,0)
GPGPU-Sim uArch: Shader 3 finished CTA #1 (16250,0), 4 CTAs running
Shared mode is : 1
GPGPU-Sim uArch: core:  3, cta: 1 initialized @(16251,0)
GPGPU-Sim uArch: Shader 1 finished CTA #1 (16266,0), 4 CTAs running
Shared mode is : 1
GPGPU-Sim uArch: core:  1, cta: 1 initialized @(16267,0)
GPGPU-Sim uArch: Shader 7 finished CTA #1 (16303,0), 4 CTAs running
Shared mode is : 1
GPGPU-Sim uArch: core:  7, cta: 1 initialized @(16304,0)
GPGPU-Sim uArch: Shader 5 finished CTA #1 (16305,0), 4 CTAs running
Shared mode is : 1
GPGPU-Sim uArch: core:  5, cta: 1 initialized @(16306,0)
GPGPU-Sim uArch: Shader 5 finished CTA #2 (16314,0), 4 CTAs running
Shared mode is : 1
GPGPU-Sim uArch: core:  5, cta: 2 initialized @(16315,0)
GPGPU-Sim uArch: Shader 8 finished CTA #2 (16340,0), 4 CTAs running
Shared mode is : 1
GPGPU-Sim uArch: core:  8, cta: 2 initialized @(16341,0)
GPGPU-Sim uArch: Shader 10 finished CTA #1 (16346,0), 4 CTAs running
Shared mode is : 1
GPGPU-Sim uArch: core: 10, cta: 1 initialized @(16347,0)
GPGPU-Sim uArch: Shader 8 finished CTA #1 (16356,0), 4 CTAs running
Shared mode is : 1
GPGPU-Sim uArch: core:  8, cta: 1 initialized @(16357,0)
GPGPU-Sim uArch: Shader 7 finished CTA #2 (16442,0), 4 CTAs running
Shared mode is : 1
GPGPU-Sim uArch: core:  7, cta: 2 initialized @(16443,0)
GPGPU-Sim uArch: Shader 13 finished CTA #1 (16512,0), 4 CTAs running
Shared mode is : 1
GPGPU-Sim uArch: core: 13, cta: 1 initialized @(16513,0)
GPGPU-Sim uArch: Shader 11 finished CTA #1 (16560,0), 4 CTAs running
Shared mode is : 1
GPGPU-Sim uArch: core: 11, cta: 1 initialized @(16561,0)
GPGPU-Sim uArch: Shader 9 finished CTA #2 (16568,0), 4 CTAs running
Shared mode is : 1
GPGPU-Sim uArch: core:  9, cta: 2 initialized @(16569,0)
GPGPU-Sim uArch: Shader 9 finished CTA #1 (16588,0), 4 CTAs running
Shared mode is : 1
GPGPU-Sim uArch: core:  9, cta: 1 initialized @(16589,0)
GPGPU-Sim uArch: Shader 11 finished CTA #2 (16605,0), 4 CTAs running
Shared mode is : 1
GPGPU-Sim uArch: core: 11, cta: 2 initialized @(16606,0)
GPGPU-Sim uArch: Shader 4 finished CTA #1 (16609,0), 4 CTAs running
Shared mode is : 1
GPGPU-Sim uArch: core:  4, cta: 1 initialized @(16610,0)
GPGPU-Sim uArch: Shader 12 finished CTA #1 (16639,0), 4 CTAs running
Shared mode is : 1
GPGPU-Sim uArch: core: 12, cta: 1 initialized @(16640,0)
GPGPU-Sim uArch: Shader 12 finished CTA #2 (16663,0), 4 CTAs running
Shared mode is : 1
GPGPU-Sim uArch: core: 12, cta: 2 initialized @(16664,0)
GPGPU-Sim uArch: Shader 1 finished CTA #3 (17393,0), 4 CTAs running
Shared mode is : 1
GPGPU-Sim uArch: core:  1, cta: 3 initialized @(17394,0)
GPGPU-Sim uArch: Shader 6 finished CTA #3 (17409,0), 4 CTAs running
Shared mode is : 1
GPGPU-Sim uArch: core:  6, cta: 3 initialized @(17410,0)
GPGPU-Sim uArch: Shader 3 finished CTA #3 (17435,0), 4 CTAs running
Shared mode is : 1
GPGPU-Sim uArch: core:  3, cta: 3 initialized @(17436,0)
GPGPU-Sim uArch: Shader 2 finished CTA #3 (17470,0), 4 CTAs running
Shared mode is : 1
GPGPU-Sim uArch: core:  2, cta: 3 initialized @(17471,0)
GPGPU-Sim uArch: Shader 13 finished CTA #2 (17583,0), 4 CTAs running
Shared mode is : 1
GPGPU-Sim uArch: core: 13, cta: 2 initialized @(17584,0)
GPGPU-Sim uArch: Shader 5 finished CTA #3 (17609,0), 4 CTAs running
Shared mode is : 1
GPGPU-Sim uArch: core:  5, cta: 3 initialized @(17610,0)
GPGPU-Sim uArch: Shader 0 finished CTA #3 (17647,0), 4 CTAs running
Shared mode is : 1
GPGPU-Sim uArch: core:  0, cta: 3 initialized @(17648,0)
GPGPU-Sim uArch: Shader 8 finished CTA #3 (17750,0), 4 CTAs running
Shared mode is : 1
GPGPU-Sim uArch: core:  8, cta: 3 initialized @(17751,0)
GPGPU-Sim uArch: Shader 4 finished CTA #2 (17765,0), 4 CTAs running
Shared mode is : 1
GPGPU-Sim uArch: core:  4, cta: 2 initialized @(17766,0)
GPGPU-Sim uArch: Shader 7 finished CTA #3 (17946,0), 4 CTAs running
Shared mode is : 1
GPGPU-Sim uArch: core:  7, cta: 3 initialized @(17947,0)
GPGPU-Sim uArch: Shader 4 finished CTA #3 (17985,0), 4 CTAs running
Shared mode is : 1
GPGPU-Sim uArch: core:  4, cta: 3 initialized @(17986,0)
GPGPU-Sim uArch: Shader 10 finished CTA #3 (17994,0), 4 CTAs running
GPGPU-Sim uArch: Shader 11 finished CTA #3 (17994,0), 4 CTAs running
GPGPU-Sim uArch: Shader 13 finished CTA #3 (17994,0), 4 CTAs running
Shared mode is : 1
GPGPU-Sim uArch: core: 10, cta: 3 initialized @(17995,0)
Shared mode is : 1
GPGPU-Sim uArch: core: 11, cta: 3 initialized @(17995,0)
Shared mode is : 1
GPGPU-Sim uArch: core: 13, cta: 3 initialized @(17995,0)
GPGPU-Sim uArch: Shader 9 finished CTA #3 (18051,0), 4 CTAs running
Shared mode is : 1
GPGPU-Sim uArch: core:  9, cta: 3 initialized @(18052,0)
GPGPU-Sim uArch: Shader 12 finished CTA #3 (18384,0), 4 CTAs running
Shared mode is : 1
GPGPU-Sim uArch: core: 12, cta: 3 initialized @(18385,0)
GPGPU-Sim uArch: Shader 6 finished CTA #4 (18956,0), 4 CTAs running
Shared mode is : 1
GPGPU-Sim uArch: core:  6, cta: 4 initialized @(18957,0)
GPGPU-Sim uArch: Shader 0 finished CTA #4 (19350,0), 4 CTAs running
GPGPU-Sim uArch: Shader 2 finished CTA #4 (19350,0), 4 CTAs running
Shared mode is : 1
GPGPU-Sim uArch: core:  0, cta: 4 initialized @(19351,0)
Shared mode is : 1
GPGPU-Sim uArch: core:  2, cta: 4 initialized @(19351,0)
GPGPU-Sim uArch: Shader 5 finished CTA #4 (19436,0), 4 CTAs running
Shared mode is : 1
GPGPU-Sim uArch: core:  5, cta: 4 initialized @(19437,0)
GPGPU-Sim uArch: Shader 3 finished CTA #4 (19447,0), 4 CTAs running
Shared mode is : 1
GPGPU-Sim uArch: core:  3, cta: 4 initialized @(19448,0)
GPGPU-Sim uArch: Shader 8 finished CTA #4 (19500,0), 4 CTAs running
Shared mode is : 1
GPGPU-Sim uArch: core:  8, cta: 4 initialized @(19501,0)
GPGPU-Sim uArch: Shader 10 finished CTA #4 (19663,0), 4 CTAs running
Shared mode is : 1
GPGPU-Sim uArch: core: 10, cta: 4 initialized @(19664,0)
GPGPU-Sim uArch: Shader 1 finished CTA #0 (19828,0), 4 CTAs running
Shared mode is : 1
GPGPU-Sim uArch: core:  1, cta: 0 initialized @(19829,0)
GPGPU-Sim uArch: Shader 7 finished CTA #4 (19936,0), 4 CTAs running
Shared mode is : 1
GPGPU-Sim uArch: core:  7, cta: 4 initialized @(19937,0)
GPGPU-Sim uArch: Shader 4 finished CTA #4 (20081,0), 4 CTAs running
Shared mode is : 1
GPGPU-Sim uArch: core:  4, cta: 4 initialized @(20082,0)
GPGPU-Sim uArch: Shader 13 finished CTA #0 (20414,0), 4 CTAs running
Shared mode is : 1
GPGPU-Sim uArch: core: 13, cta: 0 initialized @(20415,0)
GPGPU-Sim uArch: Shader 6 finished CTA #0 (20435,0), 4 CTAs running
Shared mode is : 1
GPGPU-Sim uArch: core:  6, cta: 0 initialized @(20436,0)
GPGPU-Sim uArch: Shader 1 finished CTA #4 (20441,0), 4 CTAs running
Shared mode is : 1
GPGPU-Sim uArch: core:  1, cta: 4 initialized @(20442,0)
GPGPU-Sim uArch: Shader 2 finished CTA #0 (20497,0), 4 CTAs running
Shared mode is : 1
GPGPU-Sim uArch: core:  2, cta: 0 initialized @(20498,0)
GPGPU-Sim uArch: Shader 13 finished CTA #4 (20591,0), 4 CTAs running
Shared mode is : 1
GPGPU-Sim uArch: core: 13, cta: 4 initialized @(20592,0)
GPGPU-Sim uArch: Shader 11 finished CTA #0 (20597,0), 4 CTAs running
Shared mode is : 1
GPGPU-Sim uArch: core: 11, cta: 0 initialized @(20598,0)
GPGPU-Sim uArch: Shader 0 finished CTA #0 (20631,0), 4 CTAs running
Shared mode is : 1
GPGPU-Sim uArch: core:  0, cta: 0 initialized @(20632,0)
GPGPU-Sim uArch: Shader 9 finished CTA #0 (20642,0), 4 CTAs running
Shared mode is : 1
GPGPU-Sim uArch: core:  9, cta: 0 initialized @(20643,0)
GPGPU-Sim uArch: Shader 8 finished CTA #0 (20714,0), 4 CTAs running
Shared mode is : 1
GPGPU-Sim uArch: core:  8, cta: 0 initialized @(20715,0)
GPGPU-Sim uArch: Shader 3 finished CTA #0 (20780,0), 4 CTAs running
Shared mode is : 1
GPGPU-Sim uArch: core:  3, cta: 0 initialized @(20781,0)
GPGPU-Sim uArch: Shader 5 finished CTA #0 (20855,0), 4 CTAs running
Shared mode is : 1
GPGPU-Sim uArch: core:  5, cta: 0 initialized @(20856,0)
GPGPU-Sim uArch: Shader 12 finished CTA #0 (20857,0), 4 CTAs running
Shared mode is : 1
GPGPU-Sim uArch: core: 12, cta: 0 initialized @(20858,0)
GPGPU-Sim uArch: Shader 7 finished CTA #0 (20970,0), 4 CTAs running
Shared mode is : 1
GPGPU-Sim uArch: core:  7, cta: 0 initialized @(20971,0)
GPGPU-Sim uArch: Shader 10 finished CTA #0 (20983,0), 4 CTAs running
Shared mode is : 1
GPGPU-Sim uArch: core: 10, cta: 0 initialized @(20984,0)
GPGPU-Sim uArch: Shader 12 finished CTA #4 (21097,0), 4 CTAs running
Shared mode is : 1
GPGPU-Sim uArch: core: 12, cta: 4 initialized @(21098,0)
GPGPU-Sim uArch: Shader 9 finished CTA #4 (21105,0), 4 CTAs running
Shared mode is : 1
GPGPU-Sim uArch: core:  9, cta: 4 initialized @(21106,0)
GPGPU-Sim uArch: Shader 4 finished CTA #0 (21192,0), 4 CTAs running
Shared mode is : 1
GPGPU-Sim uArch: core:  4, cta: 0 initialized @(21193,0)
GPGPU-Sim uArch: Shader 11 finished CTA #4 (21306,0), 4 CTAs running
Shared mode is : 1
GPGPU-Sim uArch: core: 11, cta: 4 initialized @(21307,0)
GPGPU-Sim uArch: Shader 6 finished CTA #1 (22053,0), 4 CTAs running
Shared mode is : 1
GPGPU-Sim uArch: core:  6, cta: 1 initialized @(22054,0)
GPGPU-Sim uArch: Shader 0 finished CTA #1 (22082,0), 4 CTAs running
Shared mode is : 1
GPGPU-Sim uArch: core:  0, cta: 1 initialized @(22083,0)
GPGPU-Sim uArch: Shader 2 finished CTA #1 (22131,0), 4 CTAs running
Shared mode is : 1
GPGPU-Sim uArch: core:  2, cta: 1 initialized @(22132,0)
GPGPU-Sim uArch: Shader 8 finished CTA #1 (22454,0), 4 CTAs running
Shared mode is : 1
GPGPU-Sim uArch: core:  8, cta: 1 initialized @(22455,0)
GPGPU-Sim uArch: Shader 10 finished CTA #1 (22500,0), 4 CTAs running
Shared mode is : 1
GPGPU-Sim uArch: core: 10, cta: 1 initialized @(22501,0)
GPGPU-Sim uArch: Shader 5 finished CTA #1 (22619,0), 4 CTAs running
Shared mode is : 1
GPGPU-Sim uArch: core:  5, cta: 1 initialized @(22620,0)
GPGPU-Sim uArch: Shader 3 finished CTA #1 (22715,0), 4 CTAs running
Shared mode is : 1
GPGPU-Sim uArch: core:  3, cta: 1 initialized @(22716,0)
GPGPU-Sim uArch: Shader 7 finished CTA #1 (22770,0), 4 CTAs running
Shared mode is : 1
GPGPU-Sim uArch: core:  7, cta: 1 initialized @(22771,0)
GPGPU-Sim uArch: Shader 4 finished CTA #1 (22907,0), 4 CTAs running
Shared mode is : 1
GPGPU-Sim uArch: core:  4, cta: 1 initialized @(22908,0)
GPGPU-Sim uArch: Shader 1 finished CTA #2 (22952,0), 4 CTAs running
Shared mode is : 1
GPGPU-Sim uArch: core:  1, cta: 2 initialized @(22953,0)
GPGPU-Sim uArch: Shader 1 finished CTA #1 (23005,0), 4 CTAs running
Shared mode is : 1
GPGPU-Sim uArch: core:  1, cta: 1 initialized @(23006,0)
GPGPU-Sim uArch: Shader 6 finished CTA #2 (23010,0), 4 CTAs running
Shared mode is : 1
GPGPU-Sim uArch: core:  6, cta: 2 initialized @(23011,0)
GPGPU-Sim uArch: Shader 13 finished CTA #1 (23428,0), 4 CTAs running
Shared mode is : 1
GPGPU-Sim uArch: core: 13, cta: 1 initialized @(23429,0)
GPGPU-Sim uArch: Shader 3 finished CTA #2 (23537,0), 4 CTAs running
Shared mode is : 1
GPGPU-Sim uArch: core:  3, cta: 2 initialized @(23538,0)
GPGPU-Sim uArch: Shader 6 finished CTA #3 (23540,0), 4 CTAs running
Shared mode is : 1
GPGPU-Sim uArch: core:  6, cta: 3 initialized @(23541,0)
GPGPU-Sim uArch: Shader 0 finished CTA #2 (23601,0), 4 CTAs running
Shared mode is : 1
GPGPU-Sim uArch: core:  0, cta: 2 initialized @(23602,0)
GPGPU-Sim uArch: Shader 12 finished CTA #1 (23625,0), 4 CTAs running
Shared mode is : 1
GPGPU-Sim uArch: core: 12, cta: 1 initialized @(23626,0)
GPGPU-Sim uArch: Shader 0 finished CTA #3 (23627,0), 4 CTAs running
Shared mode is : 1
GPGPU-Sim uArch: core:  0, cta: 3 initialized @(23628,0)
GPGPU-Sim uArch: Shader 2 finished CTA #2 (23657,0), 4 CTAs running
Shared mode is : 1
GPGPU-Sim uArch: core:  2, cta: 2 initialized @(23658,0)
GPGPU-Sim uArch: Shader 9 finished CTA #1 (23687,0), 4 CTAs running
Shared mode is : 1
GPGPU-Sim uArch: core:  9, cta: 1 initialized @(23688,0)
GPGPU-Sim uArch: Shader 2 finished CTA #3 (23717,0), 4 CTAs running
Shared mode is : 1
GPGPU-Sim uArch: core:  2, cta: 3 initialized @(23718,0)
GPGPU-Sim uArch: Shader 5 finished CTA #3 (23765,0), 4 CTAs running
Shared mode is : 1
GPGPU-Sim uArch: core:  5, cta: 3 initialized @(23766,0)
GPGPU-Sim uArch: Shader 3 finished CTA #3 (23835,0), 4 CTAs running
Shared mode is : 1
GPGPU-Sim uArch: core:  3, cta: 3 initialized @(23836,0)
GPGPU-Sim uArch: Shader 11 finished CTA #1 (23915,0), 4 CTAs running
Shared mode is : 1
GPGPU-Sim uArch: core: 11, cta: 1 initialized @(23916,0)
GPGPU-Sim uArch: Shader 1 finished CTA #3 (23998,0), 4 CTAs running
Shared mode is : 1
GPGPU-Sim uArch: core:  1, cta: 3 initialized @(23999,0)
GPGPU-Sim uArch: Shader 10 finished CTA #3 (24113,0), 4 CTAs running
Shared mode is : 1
GPGPU-Sim uArch: core: 10, cta: 3 initialized @(24114,0)
GPGPU-Sim uArch: Shader 8 finished CTA #3 (24227,0), 4 CTAs running
Shared mode is : 1
GPGPU-Sim uArch: core:  8, cta: 3 initialized @(24228,0)
GPGPU-Sim uArch: Shader 7 finished CTA #3 (24363,0), 4 CTAs running
Shared mode is : 1
GPGPU-Sim uArch: core:  7, cta: 3 initialized @(24364,0)
GPGPU-Sim uArch: Shader 4 finished CTA #3 (24387,0), 4 CTAs running
Shared mode is : 1
GPGPU-Sim uArch: core:  4, cta: 3 initialized @(24388,0)
GPGPU-Sim uArch: Shader 13 finished CTA #3 (24513,0), 4 CTAs running
Shared mode is : 1
GPGPU-Sim uArch: core: 13, cta: 3 initialized @(24514,0)
GPGPU-Sim uArch: Shader 9 finished CTA #3 (24727,0), 4 CTAs running
Shared mode is : 1
GPGPU-Sim uArch: core:  9, cta: 3 initialized @(24728,0)
GPGPU-Sim uArch: Shader 7 finished CTA #2 (24813,0), 4 CTAs running
Shared mode is : 1
GPGPU-Sim uArch: core:  7, cta: 2 initialized @(24814,0)
GPGPU-Sim uArch: Shader 9 finished CTA #2 (24836,0), 4 CTAs running
Shared mode is : 1
GPGPU-Sim uArch: core:  9, cta: 2 initialized @(24837,0)
GPGPU-Sim uArch: Shader 5 finished CTA #2 (24842,0), 4 CTAs running
Shared mode is : 1
GPGPU-Sim uArch: core:  5, cta: 2 initialized @(24843,0)
GPGPU-Sim uArch: Shader 11 finished CTA #3 (24846,0), 4 CTAs running
Shared mode is : 1
GPGPU-Sim uArch: core: 11, cta: 3 initialized @(24847,0)
GPGPU-Sim uArch: Shader 12 finished CTA #3 (25118,0), 4 CTAs running
Shared mode is : 1
GPGPU-Sim uArch: core: 12, cta: 3 initialized @(25119,0)
GPGPU-Sim uArch: Shader 6 finished CTA #4 (25153,0), 4 CTAs running
Shared mode is : 1
GPGPU-Sim uArch: core:  6, cta: 4 initialized @(25154,0)
GPGPU-Sim uArch: Shader 12 finished CTA #2 (25164,0), 4 CTAs running
Shared mode is : 1
GPGPU-Sim uArch: core: 12, cta: 2 initialized @(25165,0)
GPGPU-Sim uArch: Shader 4 finished CTA #2 (25203,0), 4 CTAs running
Shared mode is : 1
GPGPU-Sim uArch: core:  4, cta: 2 initialized @(25204,0)
GPGPU-Sim uArch: Shader 10 finished CTA #2 (25236,0), 4 CTAs running
Shared mode is : 1
GPGPU-Sim uArch: core: 10, cta: 2 initialized @(25237,0)
GPGPU-Sim uArch: Shader 8 finished CTA #2 (25338,0), 4 CTAs running
Shared mode is : 1
GPGPU-Sim uArch: core:  8, cta: 2 initialized @(25339,0)
GPGPU-Sim uArch: Shader 0 finished CTA #4 (25701,0), 4 CTAs running
Shared mode is : 1
GPGPU-Sim uArch: core:  0, cta: 4 initialized @(25702,0)
GPGPU-Sim uArch: Shader 2 finished CTA #4 (25742,0), 4 CTAs running
Shared mode is : 1
GPGPU-Sim uArch: core:  2, cta: 4 initialized @(25743,0)
GPGPU-Sim uArch: Shader 3 finished CTA #4 (25781,0), 4 CTAs running
Shared mode is : 1
GPGPU-Sim uArch: core:  3, cta: 4 initialized @(25782,0)
GPGPU-Sim uArch: Shader 8 finished CTA #4 (25895,0), 4 CTAs running
Shared mode is : 1
GPGPU-Sim uArch: core:  8, cta: 4 initialized @(25896,0)
GPGPU-Sim uArch: Shader 10 finished CTA #4 (25904,0), 4 CTAs running
Shared mode is : 1
GPGPU-Sim uArch: core: 10, cta: 4 initialized @(25905,0)
GPGPU-Sim uArch: Shader 4 finished CTA #4 (26305,0), 4 CTAs running
Shared mode is : 1
GPGPU-Sim uArch: core:  4, cta: 4 initialized @(26306,0)
GPGPU-Sim uArch: Shader 5 finished CTA #4 (26394,0), 4 CTAs running
Shared mode is : 1
GPGPU-Sim uArch: core:  5, cta: 4 initialized @(26395,0)
GPGPU-Sim uArch: Shader 7 finished CTA #4 (26420,0), 4 CTAs running
Shared mode is : 1
GPGPU-Sim uArch: core:  7, cta: 4 initialized @(26421,0)
GPGPU-Sim uArch: Shader 1 finished CTA #0 (26783,0), 4 CTAs running
Shared mode is : 1
GPGPU-Sim uArch: core:  1, cta: 0 initialized @(26784,0)
GPGPU-Sim uArch: Shader 13 finished CTA #2 (26969,0), 4 CTAs running
Shared mode is : 1
GPGPU-Sim uArch: core: 13, cta: 2 initialized @(26970,0)
GPGPU-Sim uArch: Shader 0 finished CTA #0 (27064,0), 4 CTAs running
Shared mode is : 1
GPGPU-Sim uArch: core:  0, cta: 0 initialized @(27065,0)
GPGPU-Sim uArch: Shader 2 finished CTA #0 (27073,0), 4 CTAs running
Shared mode is : 1
GPGPU-Sim uArch: core:  2, cta: 0 initialized @(27074,0)
GPGPU-Sim uArch: Shader 13 finished CTA #0 (27121,0), 4 CTAs running
Shared mode is : 1
GPGPU-Sim uArch: core: 13, cta: 0 initialized @(27122,0)
GPGPU-Sim uArch: Shader 6 finished CTA #0 (27169,0), 4 CTAs running
Shared mode is : 1
GPGPU-Sim uArch: core:  6, cta: 0 initialized @(27170,0)
GPGPU-Sim uArch: Shader 13 finished CTA #4 (27182,0), 4 CTAs running
Shared mode is : 1
GPGPU-Sim uArch: core: 13, cta: 4 initialized @(27183,0)
GPGPU-Sim uArch: Shader 11 finished CTA #2 (27186,0), 4 CTAs running
Shared mode is : 1
GPGPU-Sim uArch: core: 11, cta: 2 initialized @(27187,0)
GPGPU-Sim uArch: Shader 9 finished CTA #0 (27324,0), 4 CTAs running
Shared mode is : 1
GPGPU-Sim uArch: core:  9, cta: 0 initialized @(27325,0)
GPGPU-Sim uArch: Shader 11 finished CTA #0 (27386,0), 4 CTAs running
Shared mode is : 1
GPGPU-Sim uArch: core: 11, cta: 0 initialized @(27387,0)
GPGPU-Sim uArch: Shader 3 finished CTA #0 (27487,0), 4 CTAs running
Shared mode is : 1
GPGPU-Sim uArch: core:  3, cta: 0 initialized @(27488,0)
GPGPU-Sim uArch: Shader 8 finished CTA #0 (27565,0), 4 CTAs running
Shared mode is : 1
GPGPU-Sim uArch: core:  8, cta: 0 initialized @(27566,0)
GPGPU-Sim uArch: Shader 1 finished CTA #4 (27580,0), 4 CTAs running
Shared mode is : 1
GPGPU-Sim uArch: core:  1, cta: 4 initialized @(27581,0)
GPGPU-Sim uArch: Shader 10 finished CTA #0 (27684,0), 4 CTAs running
Shared mode is : 1
GPGPU-Sim uArch: core: 10, cta: 0 initialized @(27685,0)
GPGPU-Sim uArch: Shader 9 finished CTA #4 (27809,0), 4 CTAs running
Shared mode is : 1
GPGPU-Sim uArch: core:  9, cta: 4 initialized @(27810,0)
GPGPU-Sim uArch: Shader 12 finished CTA #0 (27839,0), 4 CTAs running
Shared mode is : 1
GPGPU-Sim uArch: core: 12, cta: 0 initialized @(27840,0)
GPGPU-Sim uArch: Shader 4 finished CTA #0 (27890,0), 4 CTAs running
Shared mode is : 1
GPGPU-Sim uArch: core:  4, cta: 0 initialized @(27891,0)
GPGPU-Sim uArch: Shader 5 finished CTA #0 (27914,0), 4 CTAs running
Shared mode is : 1
GPGPU-Sim uArch: core:  5, cta: 0 initialized @(27915,0)
GPGPU-Sim uArch: Shader 12 finished CTA #4 (27928,0), 4 CTAs running
Shared mode is : 1
GPGPU-Sim uArch: core: 12, cta: 4 initialized @(27929,0)
GPGPU-Sim uArch: Shader 7 finished CTA #0 (27963,0), 4 CTAs running
Shared mode is : 1
GPGPU-Sim uArch: core:  7, cta: 0 initialized @(27964,0)
GPGPU-Sim uArch: Shader 11 finished CTA #4 (28226,0), 4 CTAs running
Shared mode is : 1
GPGPU-Sim uArch: core: 11, cta: 4 initialized @(28227,0)
GPGPU-Sim uArch: Shader 0 finished CTA #1 (28405,0), 4 CTAs running
Shared mode is : 1
GPGPU-Sim uArch: core:  0, cta: 1 initialized @(28406,0)
GPGPU-Sim uArch: Shader 6 finished CTA #1 (28522,0), 4 CTAs running
Shared mode is : 1
GPGPU-Sim uArch: core:  6, cta: 1 initialized @(28523,0)
GPGPU-Sim uArch: Shader 2 finished CTA #1 (28760,0), 4 CTAs running
Shared mode is : 1
GPGPU-Sim uArch: core:  2, cta: 1 initialized @(28761,0)
GPGPU-Sim uArch: Shader 3 finished CTA #1 (29013,0), 4 CTAs running
Shared mode is : 1
GPGPU-Sim uArch: core:  3, cta: 1 initialized @(29014,0)
GPGPU-Sim uArch: Shader 10 finished CTA #1 (29105,0), 4 CTAs running
Shared mode is : 1
GPGPU-Sim uArch: core: 10, cta: 1 initialized @(29106,0)
GPGPU-Sim uArch: Shader 8 finished CTA #1 (29158,0), 4 CTAs running
Shared mode is : 1
GPGPU-Sim uArch: core:  8, cta: 1 initialized @(29159,0)
GPGPU-Sim uArch: Shader 5 finished CTA #1 (29274,0), 4 CTAs running
Shared mode is : 1
GPGPU-Sim uArch: core:  5, cta: 1 initialized @(29275,0)
GPGPU-Sim uArch: Shader 4 finished CTA #1 (29292,0), 4 CTAs running
Shared mode is : 1
GPGPU-Sim uArch: core:  4, cta: 1 initialized @(29293,0)
GPGPU-Sim uArch: Shader 7 finished CTA #1 (29522,0), 4 CTAs running
Shared mode is : 1
GPGPU-Sim uArch: core:  7, cta: 1 initialized @(29523,0)
GPGPU-Sim uArch: Shader 6 finished CTA #3 (30053,0), 4 CTAs running
Shared mode is : 1
GPGPU-Sim uArch: core:  6, cta: 3 initialized @(30054,0)
GPGPU-Sim uArch: Shader 13 finished CTA #1 (30185,0), 4 CTAs running
Shared mode is : 1
GPGPU-Sim uArch: core: 13, cta: 1 initialized @(30186,0)
GPGPU-Sim uArch: Shader 0 finished CTA #3 (30228,0), 4 CTAs running
Shared mode is : 1
GPGPU-Sim uArch: core:  0, cta: 3 initialized @(30229,0)
GPGPU-Sim uArch: Shader 1 finished CTA #1 (30300,0), 4 CTAs running
Shared mode is : 1
GPGPU-Sim uArch: core:  1, cta: 1 initialized @(30301,0)
GPGPU-Sim uArch: Shader 2 finished CTA #3 (30327,0), 4 CTAs running
Shared mode is : 1
GPGPU-Sim uArch: core:  2, cta: 3 initialized @(30328,0)
GPGPU-Sim uArch: Shader 9 finished CTA #1 (30557,0), 4 CTAs running
Shared mode is : 1
GPGPU-Sim uArch: core:  9, cta: 1 initialized @(30558,0)
GPGPU-Sim uArch: Shader 3 finished CTA #3 (30713,0), 4 CTAs running
Shared mode is : 1
GPGPU-Sim uArch: core:  3, cta: 3 initialized @(30714,0)
GPGPU-Sim uArch: Shader 3 finished CTA #2 (30763,0), 4 CTAs running
Shared mode is : 1
GPGPU-Sim uArch: core:  3, cta: 2 initialized @(30764,0)
GPGPU-Sim uArch: Shader 10 finished CTA #3 (30786,0), 4 CTAs running
Shared mode is : 1
GPGPU-Sim uArch: core: 10, cta: 3 initialized @(30787,0)
GPGPU-Sim uArch: Shader 8 finished CTA #3 (30789,0), 4 CTAs running
Shared mode is : 1
GPGPU-Sim uArch: core:  8, cta: 3 initialized @(30790,0)
GPGPU-Sim uArch: Shader 12 finished CTA #1 (30800,0), 4 CTAs running
Shared mode is : 1
GPGPU-Sim uArch: core: 12, cta: 1 initialized @(30801,0)
GPGPU-Sim uArch: Shader 5 finished CTA #3 (30901,0), 4 CTAs running
Shared mode is : 1
GPGPU-Sim uArch: core:  5, cta: 3 initialized @(30902,0)
GPGPU-Sim uArch: Shader 1 finished CTA #3 (30937,0), 4 CTAs running
Shared mode is : 1
GPGPU-Sim uArch: core:  1, cta: 3 initialized @(30938,0)
GPGPU-Sim uArch: Shader 7 finished CTA #3 (30991,0), 4 CTAs running
Shared mode is : 1
GPGPU-Sim uArch: core:  7, cta: 3 initialized @(30992,0)
GPGPU-Sim uArch: Shader 11 finished CTA #1 (31035,0), 4 CTAs running
Shared mode is : 1
GPGPU-Sim uArch: core: 11, cta: 1 initialized @(31036,0)
GPGPU-Sim uArch: Shader 4 finished CTA #3 (31061,0), 4 CTAs running
Shared mode is : 1
GPGPU-Sim uArch: core:  4, cta: 3 initialized @(31062,0)
GPGPU-Sim uArch: Shader 13 finished CTA #3 (31371,0), 4 CTAs running
Shared mode is : 1
GPGPU-Sim uArch: core: 13, cta: 3 initialized @(31372,0)
GPGPU-Sim uArch: Shader 0 finished CTA #2 (31648,0), 4 CTAs running
Shared mode is : 1
GPGPU-Sim uArch: core:  0, cta: 2 initialized @(31649,0)
GPGPU-Sim uArch: Shader 2 finished CTA #4 (31757,0), 4 CTAs running
Shared mode is : 1
GPGPU-Sim uArch: core:  2, cta: 4 initialized @(31758,0)
GPGPU-Sim uArch: Shader 6 finished CTA #4 (31774,0), 4 CTAs running
Shared mode is : 1
GPGPU-Sim uArch: core:  6, cta: 4 initialized @(31775,0)
GPGPU-Sim uArch: Shader 0 finished CTA #4 (31783,0), 4 CTAs running
Shared mode is : 1
GPGPU-Sim uArch: core:  0, cta: 4 initialized @(31784,0)
GPGPU-Sim uArch: Shader 9 finished CTA #3 (31922,0), 4 CTAs running
Shared mode is : 1
GPGPU-Sim uArch: core:  9, cta: 3 initialized @(31923,0)
GPGPU-Sim uArch: Shader 12 finished CTA #3 (31999,0), 4 CTAs running
Shared mode is : 1
GPGPU-Sim uArch: core: 12, cta: 3 initialized @(32000,0)
GPGPU-Sim uArch: Shader 11 finished CTA #3 (32059,0), 4 CTAs running
Shared mode is : 1
GPGPU-Sim uArch: core: 11, cta: 3 initialized @(32060,0)
GPGPU-Sim uArch: Shader 12 finished CTA #2 (32141,0), 4 CTAs running
Shared mode is : 1
GPGPU-Sim uArch: core: 12, cta: 2 initialized @(32142,0)
GPGPU-Sim uArch: Shader 10 finished CTA #4 (32252,0), 4 CTAs running
Shared mode is : 1
GPGPU-Sim uArch: core: 10, cta: 4 initialized @(32253,0)
GPGPU-Sim uArch: Shader 8 finished CTA #4 (32383,0), 4 CTAs running
Shared mode is : 1
GPGPU-Sim uArch: core:  8, cta: 4 initialized @(32384,0)
GPGPU-Sim uArch: Shader 2 finished CTA #2 (32689,0), 4 CTAs running
Shared mode is : 1
GPGPU-Sim uArch: core:  2, cta: 2 initialized @(32690,0)
GPGPU-Sim uArch: Shader 4 finished CTA #4 (32709,0), 4 CTAs running
Shared mode is : 1
GPGPU-Sim uArch: core:  4, cta: 4 initialized @(32710,0)
GPGPU-Sim uArch: Shader 5 finished CTA #4 (32753,0), 4 CTAs running
Shared mode is : 1
GPGPU-Sim uArch: core:  5, cta: 4 initialized @(32754,0)
GPGPU-Sim uArch: Shader 6 finished CTA #2 (32761,0), 4 CTAs running
Shared mode is : 1
GPGPU-Sim uArch: core:  6, cta: 2 initialized @(32762,0)
GPGPU-Sim uArch: Shader 9 finished CTA #2 (32765,0), 4 CTAs running
Shared mode is : 1
GPGPU-Sim uArch: core:  9, cta: 2 initialized @(32766,0)
GPGPU-Sim uArch: Shader 7 finished CTA #4 (32775,0), 4 CTAs running
Shared mode is : 1
GPGPU-Sim uArch: core:  7, cta: 4 initialized @(32776,0)
GPGPU-Sim uArch: Shader 3 finished CTA #4 (32928,0), 4 CTAs running
Shared mode is : 1
GPGPU-Sim uArch: core:  3, cta: 4 initialized @(32929,0)
GPGPU-Sim uArch: Shader 8 finished CTA #2 (33317,0), 4 CTAs running
Shared mode is : 1
GPGPU-Sim uArch: core:  8, cta: 2 initialized @(33318,0)
GPGPU-Sim uArch: Shader 2 finished CTA #0 (33447,0), 4 CTAs running
Shared mode is : 1
GPGPU-Sim uArch: core:  2, cta: 0 initialized @(33448,0)
GPGPU-Sim uArch: Shader 1 finished CTA #2 (33556,0), 4 CTAs running
Shared mode is : 1
GPGPU-Sim uArch: core:  1, cta: 2 initialized @(33557,0)
GPGPU-Sim uArch: Shader 1 finished CTA #0 (33590,0), 4 CTAs running
Shared mode is : 1
GPGPU-Sim uArch: core:  1, cta: 0 initialized @(33591,0)
GPGPU-Sim uArch: Shader 6 finished CTA #0 (33617,0), 4 CTAs running
Shared mode is : 1
GPGPU-Sim uArch: core:  6, cta: 0 initialized @(33618,0)
GPGPU-Sim uArch: Shader 10 finished CTA #2 (33785,0), 4 CTAs running
Shared mode is : 1
GPGPU-Sim uArch: core: 10, cta: 2 initialized @(33786,0)
GPGPU-Sim uArch: Shader 13 finished CTA #4 (33787,0), 4 CTAs running
Shared mode is : 1
GPGPU-Sim uArch: core: 13, cta: 4 initialized @(33788,0)
GPGPU-Sim uArch: Shader 5 finished CTA #2 (33826,0), 4 CTAs running
Shared mode is : 1
GPGPU-Sim uArch: core:  5, cta: 2 initialized @(33827,0)
GPGPU-Sim uArch: Shader 10 finished CTA #0 (33849,0), 4 CTAs running
Shared mode is : 1
GPGPU-Sim uArch: core: 10, cta: 0 initialized @(33850,0)
GPGPU-Sim uArch: Shader 4 finished CTA #2 (33881,0), 4 CTAs running
Shared mode is : 1
GPGPU-Sim uArch: core:  4, cta: 2 initialized @(33882,0)
GPGPU-Sim uArch: Shader 0 finished CTA #0 (33922,0), 4 CTAs running
Shared mode is : 1
GPGPU-Sim uArch: core:  0, cta: 0 initialized @(33923,0)
GPGPU-Sim uArch: Shader 13 finished CTA #0 (33973,0), 4 CTAs running
Shared mode is : 1
GPGPU-Sim uArch: core: 13, cta: 0 initialized @(33974,0)
GPGPU-Sim uArch: Shader 8 finished CTA #0 (33995,0), 4 CTAs running
Shared mode is : 1
GPGPU-Sim uArch: core:  8, cta: 0 initialized @(33996,0)
GPGPU-Sim uArch: Shader 7 finished CTA #2 (34092,0), 4 CTAs running
Shared mode is : 1
GPGPU-Sim uArch: core:  7, cta: 2 initialized @(34093,0)
GPGPU-Sim uArch: Shader 5 finished CTA #0 (34180,0), 4 CTAs running
Shared mode is : 1
GPGPU-Sim uArch: core:  5, cta: 0 initialized @(34181,0)
GPGPU-Sim uArch: Shader 4 finished CTA #0 (34314,0), 4 CTAs running
Shared mode is : 1
GPGPU-Sim uArch: core:  4, cta: 0 initialized @(34315,0)
GPGPU-Sim uArch: Shader 3 finished CTA #0 (34393,0), 4 CTAs running
Shared mode is : 1
GPGPU-Sim uArch: core:  3, cta: 0 initialized @(34394,0)
GPGPU-Sim uArch: Shader 1 finished CTA #4 (34430,0), 4 CTAs running
Shared mode is : 1
GPGPU-Sim uArch: core:  1, cta: 4 initialized @(34431,0)
GPGPU-Sim uArch: Shader 9 finished CTA #0 (34503,0), 4 CTAs running
Shared mode is : 1
GPGPU-Sim uArch: core:  9, cta: 0 initialized @(34504,0)
GPGPU-Sim uArch: Shader 11 finished CTA #0 (34535,0), 4 CTAs running
Shared mode is : 1
GPGPU-Sim uArch: core: 11, cta: 0 initialized @(34536,0)
GPGPU-Sim uArch: Shader 7 finished CTA #0 (34593,0), 4 CTAs running
Shared mode is : 1
GPGPU-Sim uArch: core:  7, cta: 0 initialized @(34594,0)
GPGPU-Sim uArch: Shader 12 finished CTA #0 (34678,0), 4 CTAs running
Shared mode is : 1
GPGPU-Sim uArch: core: 12, cta: 0 initialized @(34679,0)
GPGPU-Sim uArch: Shader 9 finished CTA #4 (34683,0), 4 CTAs running
Shared mode is : 1
GPGPU-Sim uArch: core:  9, cta: 4 initialized @(34684,0)
GPGPU-Sim uArch: Shader 6 finished CTA #1 (35150,0), 4 CTAs running
Shared mode is : 1
GPGPU-Sim uArch: core:  6, cta: 1 initialized @(35151,0)
GPGPU-Sim uArch: Shader 2 finished CTA #1 (35173,0), 4 CTAs running
Shared mode is : 1
GPGPU-Sim uArch: core:  2, cta: 1 initialized @(35174,0)
GPGPU-Sim uArch: Shader 12 finished CTA #4 (35181,0), 4 CTAs running
Shared mode is : 1
GPGPU-Sim uArch: core: 12, cta: 4 initialized @(35182,0)
GPGPU-Sim uArch: Shader 0 finished CTA #1 (35211,0), 4 CTAs running
Shared mode is : 1
GPGPU-Sim uArch: core:  0, cta: 1 initialized @(35212,0)
GPGPU-Sim uArch: Shader 11 finished CTA #4 (35467,0), 4 CTAs running
Shared mode is : 1
GPGPU-Sim uArch: core: 11, cta: 4 initialized @(35468,0)
GPGPU-Sim uArch: Shader 11 finished CTA #2 (35573,0), 4 CTAs running
Shared mode is : 1
GPGPU-Sim uArch: core: 11, cta: 2 initialized @(35574,0)
GPGPU-Sim uArch: Shader 3 finished CTA #1 (35860,0), 4 CTAs running
Shared mode is : 1
GPGPU-Sim uArch: core:  3, cta: 1 initialized @(35861,0)
GPGPU-Sim uArch: Shader 8 finished CTA #1 (35866,0), 4 CTAs running
Shared mode is : 1
GPGPU-Sim uArch: core:  8, cta: 1 initialized @(35867,0)
GPGPU-Sim uArch: Shader 10 finished CTA #1 (35871,0), 4 CTAs running
Shared mode is : 1
GPGPU-Sim uArch: core: 10, cta: 1 initialized @(35872,0)
GPGPU-Sim uArch: Shader 4 finished CTA #1 (36225,0), 4 CTAs running
Shared mode is : 1
GPGPU-Sim uArch: core:  4, cta: 1 initialized @(36226,0)
GPGPU-Sim uArch: Shader 5 finished CTA #1 (36226,0), 4 CTAs running
Shared mode is : 1
GPGPU-Sim uArch: core:  5, cta: 1 initialized @(36227,0)
GPGPU-Sim uArch: Shader 7 finished CTA #1 (36286,0), 4 CTAs running
Shared mode is : 1
GPGPU-Sim uArch: core:  7, cta: 1 initialized @(36287,0)
GPGPU-Sim uArch: Shader 13 finished CTA #2 (36643,0), 4 CTAs running
Shared mode is : 1
GPGPU-Sim uArch: core: 13, cta: 2 initialized @(36644,0)
GPGPU-Sim uArch: Shader 13 finished CTA #1 (36728,0), 4 CTAs running
Shared mode is : 1
GPGPU-Sim uArch: core: 13, cta: 1 initialized @(36729,0)
GPGPU-Sim uArch: Shader 6 finished CTA #3 (36746,0), 4 CTAs running
Shared mode is : 1
GPGPU-Sim uArch: core:  6, cta: 3 initialized @(36747,0)
GPGPU-Sim uArch: Shader 0 finished CTA #3 (36879,0), 4 CTAs running
Shared mode is : 1
GPGPU-Sim uArch: core:  0, cta: 3 initialized @(36880,0)
GPGPU-Sim uArch: Shader 2 finished CTA #3 (36979,0), 4 CTAs running
Shared mode is : 1
GPGPU-Sim uArch: core:  2, cta: 3 initialized @(36980,0)
GPGPU-Sim uArch: Shader 10 finished CTA #3 (37112,0), 4 CTAs running
Shared mode is : 1
GPGPU-Sim uArch: core: 10, cta: 3 initialized @(37113,0)
GPGPU-Sim uArch: Shader 1 finished CTA #1 (37190,0), 4 CTAs running
Shared mode is : 1
GPGPU-Sim uArch: core:  1, cta: 1 initialized @(37191,0)
GPGPU-Sim uArch: Shader 3 finished CTA #3 (37255,0), 4 CTAs running
Shared mode is : 1
GPGPU-Sim uArch: core:  3, cta: 3 initialized @(37256,0)
GPGPU-Sim uArch: Shader 8 finished CTA #3 (37310,0), 4 CTAs running
Shared mode is : 1
GPGPU-Sim uArch: core:  8, cta: 3 initialized @(37311,0)
GPGPU-Sim uArch: Shader 5 finished CTA #3 (37446,0), 4 CTAs running
Shared mode is : 1
GPGPU-Sim uArch: core:  5, cta: 3 initialized @(37447,0)
GPGPU-Sim uArch: Shader 9 finished CTA #1 (37659,0), 4 CTAs running
Shared mode is : 1
GPGPU-Sim uArch: core:  9, cta: 1 initialized @(37660,0)
GPGPU-Sim uArch: Shader 12 finished CTA #1 (37950,0), 4 CTAs running
Shared mode is : 1
GPGPU-Sim uArch: core: 12, cta: 1 initialized @(37951,0)
GPGPU-Sim uArch: Shader 4 finished CTA #3 (38030,0), 4 CTAs running
Shared mode is : 1
GPGPU-Sim uArch: core:  4, cta: 3 initialized @(38031,0)
GPGPU-Sim uArch: Shader 7 finished CTA #3 (38033,0), 4 CTAs running
Shared mode is : 1
GPGPU-Sim uArch: core:  7, cta: 3 initialized @(38034,0)
GPGPU-Sim uArch: Shader 6 finished CTA #4 (38127,0), 4 CTAs running
Shared mode is : 1
GPGPU-Sim uArch: core:  6, cta: 4 initialized @(38128,0)
GPGPU-Sim uArch: Shader 1 finished CTA #3 (38149,0), 4 CTAs running
Shared mode is : 1
GPGPU-Sim uArch: core:  1, cta: 3 initialized @(38150,0)
GPGPU-Sim uArch: Shader 11 finished CTA #1 (38175,0), 4 CTAs running
Shared mode is : 1
GPGPU-Sim uArch: core: 11, cta: 1 initialized @(38176,0)
GPGPU-Sim uArch: Shader 0 finished CTA #4 (38213,0), 4 CTAs running
Shared mode is : 1
GPGPU-Sim uArch: core:  0, cta: 4 initialized @(38214,0)
GPGPU-Sim uArch: Shader 13 finished CTA #3 (38412,0), 4 CTAs running
Shared mode is : 1
GPGPU-Sim uArch: core: 13, cta: 3 initialized @(38413,0)
GPGPU-Sim uArch: Shader 2 finished CTA #4 (38458,0), 4 CTAs running
Shared mode is : 1
GPGPU-Sim uArch: core:  2, cta: 4 initialized @(38459,0)
GPGPU-Sim uArch: Shader 10 finished CTA #4 (38541,0), 4 CTAs running
Shared mode is : 1
GPGPU-Sim uArch: core: 10, cta: 4 initialized @(38542,0)
GPGPU-Sim uArch: Shader 8 finished CTA #4 (38708,0), 4 CTAs running
Shared mode is : 1
GPGPU-Sim uArch: core:  8, cta: 4 initialized @(38709,0)
GPGPU-Sim uArch: Shader 11 finished CTA #3 (38748,0), 4 CTAs running
Shared mode is : 1
GPGPU-Sim uArch: core: 11, cta: 3 initialized @(38749,0)
GPGPU-Sim uArch: Shader 3 finished CTA #2 (38779,0), 4 CTAs running
Shared mode is : 1
GPGPU-Sim uArch: core:  3, cta: 2 initialized @(38780,0)
GPGPU-Sim uArch: Shader 3 finished CTA #4 (38841,0), 4 CTAs running
Shared mode is : 1
GPGPU-Sim uArch: core:  3, cta: 4 initialized @(38842,0)
GPGPU-Sim uArch: Shader 9 finished CTA #3 (39039,0), 4 CTAs running
Shared mode is : 1
GPGPU-Sim uArch: core:  9, cta: 3 initialized @(39040,0)
GPGPU-Sim uArch: Shader 12 finished CTA #3 (39203,0), 4 CTAs running
Shared mode is : 1
GPGPU-Sim uArch: core: 12, cta: 3 initialized @(39204,0)
GPGPU-Sim uArch: Shader 5 finished CTA #4 (39248,0), 4 CTAs running
Shared mode is : 1
GPGPU-Sim uArch: core:  5, cta: 4 initialized @(39249,0)
GPGPU-Sim uArch: Shader 4 finished CTA #4 (39273,0), 4 CTAs running
Shared mode is : 1
GPGPU-Sim uArch: core:  4, cta: 4 initialized @(39274,0)
GPGPU-Sim uArch: Shader 7 finished CTA #4 (39301,0), 4 CTAs running
Shared mode is : 1
GPGPU-Sim uArch: core:  7, cta: 4 initialized @(39302,0)
GPGPU-Sim uArch: Shader 6 finished CTA #0 (39751,0), 4 CTAs running
Shared mode is : 1
GPGPU-Sim uArch: core:  6, cta: 0 initialized @(39752,0)
GPGPU-Sim uArch: Shader 0 finished CTA #0 (39813,0), 4 CTAs running
Shared mode is : 1
GPGPU-Sim uArch: core:  0, cta: 0 initialized @(39814,0)
GPGPU-Sim uArch: Shader 13 finished CTA #4 (39858,0), 4 CTAs running
[...]
GPGPU-Sim uArch: Shader 1 finished CTA #2 (182984,0), 3 CTAs running
GPGPU-Sim uArch: Shader 3 finished CTA #2 (183207,0), 2 CTAs running
GPGPU-Sim uArch: Shader 4 finished CTA #2 (183622,0), 2 CTAs running
GPGPU-Sim uArch: Shader 13 finished CTA #4 (183624,0), 2 CTAs running
GPGPU-Sim uArch: Shader 9 finished CTA #2 (183668,0), 3 CTAs running
GPGPU-Sim uArch: Shader 11 finished CTA #2 (183697,0), 3 CTAs running
GPGPU-Sim uArch: Shader 7 finished CTA #2 (183712,0), 2 CTAs running
GPGPU-Sim uArch: Shader 0 finished CTA #1 (183753,0), 2 CTAs running
GPGPU-Sim uArch: Shader 3 finished CTA #0 (183804,0), 1 CTAs running
GPGPU-Sim uArch: Shader 11 finished CTA #1 (183820,0), 2 CTAs running
GPGPU-Sim uArch: Shader 10 finished CTA #0 (183842,0), 2 CTAs running
GPGPU-Sim uArch: Shader 12 finished CTA #3 (183847,0), 2 CTAs running
GPGPU-Sim uArch: Shader 1 finished CTA #0 (183854,0), 2 CTAs running
GPGPU-Sim uArch: Shader 9 finished CTA #3 (183887,0), 2 CTAs running
GPGPU-Sim uArch: Shader 4 finished CTA #0 (184023,0), 1 CTAs running
GPGPU-Sim uArch: Shader 2 finished CTA #0 (184070,0), 2 CTAs running
GPGPU-Sim uArch: Shader 8 finished CTA #0 (184075,0), 2 CTAs running
GPGPU-Sim uArch: Shader 6 finished CTA #1 (184076,0), 2 CTAs running
GPGPU-Sim uArch: Shader 7 finished CTA #0 (184091,0), 1 CTAs running
GPGPU-Sim uArch: Shader 5 finished CTA #0 (184097,0), 2 CTAs running
GPGPU-Sim uArch: Shader 12 finished CTA #2 (184189,0), 1 CTAs running
GPGPU-Sim uArch: Shader 0 finished CTA #3 (184812,0), 1 CTAs running
GPGPU-Sim uArch: Shader 13 finished CTA #0 (184873,0), 1 CTAs running
GPGPU-Sim uArch: Shader 8 finished CTA #2 (184911,0), 1 CTAs running
GPGPU-Sim uArch: Shader 3 finished CTA #1 (184934,0), 0 CTAs running
GPGPU-Sim uArch: Shader 3 empty (release kernel 1 '_Z14calculate_tempiPfS_S_iiiiffffff').
GPGPU-Sim uArch: Shader 6 finished CTA #3 (184935,0), 1 CTAs running
GPGPU-Sim uArch: Shader 12 finished CTA #1 (184937,0), 0 CTAs running
GPGPU-Sim uArch: Shader 12 empty (release kernel 1 '_Z14calculate_tempiPfS_S_iiiiffffff').
GPGPU-Sim uArch: Shader 8 finished CTA #1 (184944,0), 0 CTAs running
GPGPU-Sim uArch: Shader 8 empty (release kernel 1 '_Z14calculate_tempiPfS_S_iiiiffffff').
GPGPU-Sim uArch: Shader 11 finished CTA #3 (184947,0), 1 CTAs running
GPGPU-Sim uArch: Shader 10 finished CTA #1 (184965,0), 1 CTAs running
GPGPU-Sim uArch: Shader 4 finished CTA #1 (184968,0), 0 CTAs running
GPGPU-Sim uArch: Shader 4 empty (release kernel 1 '_Z14calculate_tempiPfS_S_iiiiffffff').
GPGPU-Sim uArch: Shader 2 finished CTA #1 (185011,0), 1 CTAs running
GPGPU-Sim uArch: Shader 1 finished CTA #1 (185048,0), 1 CTAs running
GPGPU-Sim uArch: Shader 7 finished CTA #1 (185068,0), 0 CTAs running
GPGPU-Sim uArch: Shader 7 empty (release kernel 1 '_Z14calculate_tempiPfS_S_iiiiffffff').
GPGPU-Sim uArch: Shader 5 finished CTA #2 (185085,0), 1 CTAs running
GPGPU-Sim uArch: Shader 9 finished CTA #4 (185133,0), 1 CTAs running
GPGPU-Sim uArch: Shader 5 finished CTA #1 (185166,0), 0 CTAs running
GPGPU-Sim uArch: Shader 5 empty (release kernel 1 '_Z14calculate_tempiPfS_S_iiiiffffff').
GPGPU-Sim uArch: Shader 6 finished CTA #2 (185235,0), 0 CTAs running
GPGPU-Sim uArch: Shader 6 empty (release kernel 1 '_Z14calculate_tempiPfS_S_iiiiffffff').
GPGPU-Sim uArch: Shader 10 finished CTA #3 (185734,0), 0 CTAs running
GPGPU-Sim uArch: Shader 10 empty (release kernel 1 '_Z14calculate_tempiPfS_S_iiiiffffff').
GPGPU-Sim uArch: Shader 0 finished CTA #4 (185841,0), 0 CTAs running
GPGPU-Sim uArch: Shader 0 empty (release kernel 1 '_Z14calculate_tempiPfS_S_iiiiffffff').
GPGPU-Sim uArch: Shader 13 finished CTA #1 (185861,0), 0 CTAs running
GPGPU-Sim uArch: Shader 13 empty (release kernel 1 '_Z14calculate_tempiPfS_S_iiiiffffff').
GPGPU-Sim uArch: Shader 11 finished CTA #4 (185889,0), 0 CTAs running
GPGPU-Sim uArch: Shader 11 empty (release kernel 1 '_Z14calculate_tempiPfS_S_iiiiffffff').
GPGPU-Sim uArch: Shader 2 finished CTA #3 (186019,0), 0 CTAs running
GPGPU-Sim uArch: Shader 2 empty (release kernel 1 '_Z14calculate_tempiPfS_S_iiiiffffff').
GPGPU-Sim uArch: Shader 1 finished CTA #3 (186039,0), 0 CTAs running
GPGPU-Sim uArch: Shader 1 empty (release kernel 1 '_Z14calculate_tempiPfS_S_iiiiffffff').
GPGPU-Sim uArch: Shader 9 finished CTA #0 (186100,0), 0 CTAs running
GPGPU-Sim uArch: Shader 9 empty (release kernel 1 '_Z14calculate_tempiPfS_S_iiiiffffff').
GPGPU-Sim uArch: GPU detected kernel '_Z14calculate_tempiPfS_S_iiiiffffff' finished on shader 9.
kernel_name = _Z14calculate_tempiPfS_S_iiiiffffff 
kernel_launch_uid = 1 
gpu_sim_cycle = 186101
gpu_sim_insn = 89083700
gpu_ipc =     478.6847
gpu_tot_sim_cycle = 186101
gpu_tot_sim_insn = 89083700
gpu_tot_ipc =     478.6847
gpu_tot_issued_cta = 0
gpu_stall_dramfull = 2166
gpu_stall_icnt2sh    = 149822
gpu_total_sim_rate=593891

========= Core cache stats =========
L1I_cache:
	L1I_total_cache_accesses = 1793970
	L1I_total_cache_misses = 2676
	L1I_total_cache_miss_rate = 0.0015
	L1I_total_cache_pending_hits = 0
	L1I_total_cache_reservation_fails = 3822
L1D_cache:
	L1D_cache_core[0]: Access = 8144, Miss = 8130, Miss_rate = 0.998, Pending_hits = 0, Reservation_fails = 56624
	L1D_cache_core[1]: Access = 7560, Miss = 7558, Miss_rate = 1.000, Pending_hits = 0, Reservation_fails = 56933
	L1D_cache_core[2]: Access = 8140, Miss = 8131, Miss_rate = 0.999, Pending_hits = 4, Reservation_fails = 58661
	L1D_cache_core[3]: Access = 7988, Miss = 7988, Miss_rate = 1.000, Pending_hits = 0, Reservation_fails = 58230
	L1D_cache_core[4]: Access = 8124, Miss = 8116, Miss_rate = 0.999, Pending_hits = 4, Reservation_fails = 58374
	L1D_cache_core[5]: Access = 8240, Miss = 8232, Miss_rate = 0.999, Pending_hits = 0, Reservation_fails = 59708
	L1D_cache_core[6]: Access = 8360, Miss = 8348, Miss_rate = 0.999, Pending_hits = 0, Reservation_fails = 56896
	L1D_cache_core[7]: Access = 8092, Miss = 8088, Miss_rate = 1.000, Pending_hits = 0, Reservation_fails = 57520
	L1D_cache_core[8]: Access = 8124, Miss = 8124, Miss_rate = 1.000, Pending_hits = 0, Reservation_fails = 57403
	L1D_cache_core[9]: Access = 7864, Miss = 7862, Miss_rate = 1.000, Pending_hits = 0, Reservation_fails = 58442
	L1D_cache_core[10]: Access = 7900, Miss = 7895, Miss_rate = 0.999, Pending_hits = 0, Reservation_fails = 59672
	L1D_cache_core[11]: Access = 8128, Miss = 8100, Miss_rate = 0.997, Pending_hits = 2, Reservation_fails = 58624
	L1D_cache_core[12]: Access = 8008, Miss = 8006, Miss_rate = 1.000, Pending_hits = 1, Reservation_fails = 57286
	L1D_cache_core[13]: Access = 8144, Miss = 8136, Miss_rate = 0.999, Pending_hits = 4, Reservation_fails = 59535
	L1D_total_cache_accesses = 112816
	L1D_total_cache_misses = 112714
	L1D_total_cache_miss_rate = 0.9991
	L1D_total_cache_pending_hits = 15
	L1D_total_cache_reservation_fails = 813908
	L1D_cache_data_port_util = 0.000
	L1D_cache_fill_port_util = 0.033
L1C_cache:
	L1C_total_cache_accesses = 0
	L1C_total_cache_misses = 0
	L1C_total_cache_pending_hits = 0
	L1C_total_cache_reservation_fails = 0
L1T_cache:
	L1T_total_cache_accesses = 0
	L1T_total_cache_misses = 0
	L1T_total_cache_pending_hits = 0
	L1T_total_cache_reservation_fails = 0

Total_core_cache_stats:
	Total_core_cache_stats_breakdown[GLOBAL_ACC_R][HIT] = 87
	Total_core_cache_stats_breakdown[GLOBAL_ACC_R][HIT_RESERVED] = 15
	Total_core_cache_stats_breakdown[GLOBAL_ACC_R][MISS] = 85578
	Total_core_cache_stats_breakdown[GLOBAL_ACC_R][RESERVATION_FAIL] = 807877
	Total_core_cache_stats_breakdown[GLOBAL_ACC_W][MISS] = 27136
	Total_core_cache_stats_breakdown[GLOBAL_ACC_W][RESERVATION_FAIL] = 6031
	Total_core_cache_stats_breakdown[INST_ACC_R][HIT] = 1791294
	Total_core_cache_stats_breakdown[INST_ACC_R][MISS] = 2676
	Total_core_cache_stats_breakdown[INST_ACC_R][RESERVATION_FAIL] = 3822
Shader 0 warp_id issue ditsribution:
warp_id:
0, 1, 2, 3, 4, 5, 6, 7, 8, 9, 10, 11, 12, 13, 14, 15, 16, 17, 18, 19, 20, 21, 22, 23, 24, 25, 26, 27, 28, 29, 30, 31, 32, 33, 34, 35, 36, 37, 38, 39, 
distro:
5138, 7168, 7168, 7168, 7168, 7168, 7168, 5264, 5138, 7168, 7168, 7168, 7168, 7043, 7043, 5199, 3836, 5376, 5376, 5376, 5376, 5376, 5376, 3948, 5208, 7168, 7168, 7168, 7168, 7043, 7043, 5199, 5394, 7424, 7424, 7424, 7424, 7299, 7299, 5387, 
gpgpu_n_tot_thrd_icount = 112481120
gpgpu_n_tot_w_icount = 3515035
gpgpu_n_stall_shd_mem = 886476
gpgpu_n_mem_read_local = 0
gpgpu_n_mem_write_local = 0
gpgpu_n_mem_read_global = 85578
gpgpu_n_mem_write_global = 27136
gpgpu_n_mem_texture = 0
gpgpu_n_mem_const = 0
gpgpu_n_load_insn  = 924800
gpgpu_n_store_insn = 262144
gpgpu_n_shmem_insn = 6840720
gpgpu_n_tex_insn = 0
gpgpu_n_const_mem_insn = 0
gpgpu_n_param_mem_insn = 0
gpgpu_n_shmem_bkconflict = 0
gpgpu_n_cache_bkconflict = 0
gpgpu_n_intrawarp_mshr_merge = 0
gpgpu_n_cmem_portconflict = 0
gpgpu_stall_shd_mem[c_mem][bk_conf] = 0
gpgpu_stall_shd_mem[c_mem][mshr_rc] = 0
gpgpu_stall_shd_mem[c_mem][icnt_rc] = 0
gpgpu_stall_shd_mem[c_mem][data_port_stall] = 0
gpgpu_stall_shd_mem[t_mem][mshr_rc] = 0
gpgpu_stall_shd_mem[t_mem][icnt_rc] = 0
gpgpu_stall_shd_mem[t_mem][data_port_stall] = 0
gpgpu_stall_shd_mem[s_mem][bk_conf] = 0
gpgpu_stall_shd_mem[gl_mem][bk_conf] = 0
gpgpu_stall_shd_mem[gl_mem][coal_stall] = 886476
gpgpu_stall_shd_mem[gl_mem][data_port_stall] = 0
gpgpu_stall_shd_mem[g_mem_ld][mshr_rc] = 0
gpgpu_stall_shd_mem[g_mem_ld][icnt_rc] = 0
gpgpu_stall_shd_mem[g_mem_ld][wb_icnt_rc] = 0
gpgpu_stall_shd_mem[g_mem_ld][wb_rsrv_fail] = 0
gpgpu_stall_shd_mem[g_mem_st][mshr_rc] = 0
gpgpu_stall_shd_mem[g_mem_st][icnt_rc] = 0
gpgpu_stall_shd_mem[g_mem_st][wb_icnt_rc] = 0
gpgpu_stall_shd_mem[g_mem_st][wb_rsrv_fail] = 0
gpgpu_stall_shd_mem[l_mem_ld][mshr_rc] = 0
gpgpu_stall_shd_mem[l_mem_ld][icnt_rc] = 0
gpgpu_stall_shd_mem[l_mem_ld][wb_icnt_rc] = 0
gpgpu_stall_shd_mem[l_mem_ld][wb_rsrv_fail] = 0
gpgpu_stall_shd_mem[l_mem_st][mshr_rc] = 0
gpgpu_stall_shd_mem[l_mem_st][icnt_rc] = 0
gpgpu_stall_shd_mem[l_mem_ld][wb_icnt_rc] = 0
gpgpu_stall_shd_mem[l_mem_ld][wb_rsrv_fail] = 0
gpu_reg_bank_conflict_stalls = 0
Warp Occupancy Distribution:
Stall:1278604	W0_Idle:16829	W0_Scoreboard:383030	W1:0	W2:0	W3:0	W4:0	W5:0	W6:0	W7:0	W8:0	W9:3450	W10:0	W11:0	W12:0	W13:3622	W14:159768	W15:0	W16:16392	W17:0	W18:10504	W19:0	W20:5440	W21:0	W22:0	W23:0	W24:788310	W25:0	W26:11020	W27:0	W28:580830	W29:0	W30:44376	W31:0	W32:1891323
Stall[0]:  88352 Stall[1]:  97205 Stall[2]:  88744 Stall[3]:  88927 Stall[4]:  89136 Stall[5]:  90447 Stall[6]:  87387 Stall[7]:  90162 Stall[8]:  91593 Stall[9]:  93898 Stall[10]:  91666 Stall[11]:  94532 Stall[12]:  94443 Stall[13]:  92112 
traffic_breakdown_coretomem[GLOBAL_ACC_R] = 684624 {8:85578,}
traffic_breakdown_coretomem[GLOBAL_ACC_W] = 1970176 {40:10752,72:10752,136:5632,}
traffic_breakdown_coretomem[INST_ACC_R] = 1456 {8:182,}
traffic_breakdown_memtocore[GLOBAL_ACC_R] = 11638608 {136:85578,}
traffic_breakdown_memtocore[GLOBAL_ACC_W] = 217088 {8:27136,}
traffic_breakdown_memtocore[INST_ACC_R] = 24752 {136:182,}
Memory Partition 0: 
Cache L2_bank_000:
MSHR contents

Cache L2_bank_001:
MSHR contents

In Dram Latency Queue (total = 0): 
DRAM[0]: 16 bks, busW=4 BL=8 CL=12, tRRD=2 tCCD=6, tRCD=12 tRAS=28 tRP=12 tRC=40
n_cmd=242740 n_nop=227039 n_act=1526 n_pre=1510 n_req=7166 n_rd=8198 n_write=4467 bw_util=0.1044
n_activity=111531 dram_eff=0.2271
bk0: 516a 237017i bk1: 514a 236727i bk2: 512a 235912i bk3: 512a 235719i bk4: 512a 235846i bk5: 512a 235638i bk6: 512a 235709i bk7: 512a 236222i bk8: 512a 236176i bk9: 512a 236002i bk10: 512a 236959i bk11: 512a 236328i bk12: 512a 236975i bk13: 512a 236299i bk14: 512a 236686i bk15: 512a 236699i 
dram_util_bins: 0 0 0 0 0 0 0 0 0 0
dram_eff_bins: 0 0 0 0 0 0 0 0 0 0
mrqq: max=16 avg=0.575496
Memory Partition 1: 
Cache L2_bank_002:
MSHR contents

Cache L2_bank_003:
MSHR contents

In Dram Latency Queue (total = 0): 
DRAM[1]: 16 bks, busW=4 BL=8 CL=12, tRRD=2 tCCD=6, tRCD=12 tRAS=28 tRP=12 tRC=40
n_cmd=242740 n_nop=227044 n_act=1483 n_pre=1467 n_req=7098 n_rd=8196 n_write=4550 bw_util=0.105
n_activity=109624 dram_eff=0.2325
bk0: 516a 235792i bk1: 512a 236521i bk2: 512a 235990i bk3: 512a 236392i bk4: 512a 235829i bk5: 512a 236195i bk6: 512a 235732i bk7: 512a 236147i bk8: 512a 235755i bk9: 512a 235778i bk10: 512a 237060i bk11: 512a 236346i bk12: 512a 236692i bk13: 512a 237036i bk14: 512a 236862i bk15: 512a 236496i 
dram_util_bins: 0 0 0 0 0 0 0 0 0 0
dram_eff_bins: 0 0 0 0 0 0 0 0 0 0
mrqq: max=16 avg=0.558054
Memory Partition 2: 
Cache L2_bank_004:
MSHR contents

Cache L2_bank_005:
MSHR contents

In Dram Latency Queue (total = 0): 
DRAM[2]: 16 bks, busW=4 BL=8 CL=12, tRRD=2 tCCD=6, tRCD=12 tRAS=28 tRP=12 tRC=40
n_cmd=242740 n_nop=227153 n_act=1465 n_pre=1449 n_req=7172 n_rd=8196 n_write=4477 bw_util=0.1044
n_activity=108439 dram_eff=0.2337
bk0: 516a 236480i bk1: 512a 236966i bk2: 512a 235731i bk3: 512a 236126i bk4: 512a 236016i bk5: 512a 235780i bk6: 512a 235994i bk7: 512a 235454i bk8: 512a 236185i bk9: 512a 235957i bk10: 512a 236413i bk11: 512a 237396i bk12: 512a 236367i bk13: 512a 237029i bk14: 512a 236818i bk15: 512a 236893i 
dram_util_bins: 0 0 0 0 0 0 0 0 0 0
dram_eff_bins: 0 0 0 0 0 0 0 0 0 0
mrqq: max=16 avg=0.585688
Memory Partition 3: 
Cache L2_bank_006:
MSHR contents

Cache L2_bank_007:
MSHR contents

In Dram Latency Queue (total = 0): 
DRAM[3]: 16 bks, busW=4 BL=8 CL=12, tRRD=2 tCCD=6, tRCD=12 tRAS=28 tRP=12 tRC=40
n_cmd=242740 n_nop=227138 n_act=1437 n_pre=1421 n_req=7099 n_rd=8196 n_write=4548 bw_util=0.105
n_activity=107957 dram_eff=0.2361
bk0: 516a 236538i bk1: 512a 236232i bk2: 512a 236222i bk3: 512a 236106i bk4: 512a 236246i bk5: 512a 235951i bk6: 512a 236239i bk7: 512a 235582i bk8: 512a 235700i bk9: 512a 235666i bk10: 512a 236377i bk11: 512a 237187i bk12: 512a 237388i bk13: 512a 236834i bk14: 512a 236522i bk15: 512a 237066i 
dram_util_bins: 0 0 0 0 0 0 0 0 0 0
dram_eff_bins: 0 0 0 0 0 0 0 0 0 0
mrqq: max=16 avg=0.57295
Memory Partition 4: 
Cache L2_bank_008:
MSHR contents

Cache L2_bank_009:
MSHR contents

In Dram Latency Queue (total = 0): 
DRAM[4]: 16 bks, busW=4 BL=8 CL=12, tRRD=2 tCCD=6, tRCD=12 tRAS=28 tRP=12 tRC=40
n_cmd=242740 n_nop=227095 n_act=1496 n_pre=1480 n_req=7171 n_rd=8196 n_write=4473 bw_util=0.1044
n_activity=110635 dram_eff=0.229
bk0: 516a 236759i bk1: 512a 236579i bk2: 512a 236164i bk3: 512a 235991i bk4: 512a 235752i bk5: 512a 235745i bk6: 512a 235356i bk7: 512a 236354i bk8: 512a 235968i bk9: 512a 236182i bk10: 512a 236973i bk11: 512a 236466i bk12: 512a 236642i bk13: 512a 236638i bk14: 512a 236570i bk15: 512a 236932i 
dram_util_bins: 0 0 0 0 0 0 0 0 0 0
dram_eff_bins: 0 0 0 0 0 0 0 0 0 0
mrqq: max=16 avg=0.576324
Memory Partition 5: 
Cache L2_bank_010:
MSHR contents

Cache L2_bank_011:
MSHR contents

In Dram Latency Queue (total = 0): 
DRAM[5]: 16 bks, busW=4 BL=8 CL=12, tRRD=2 tCCD=6, tRCD=12 tRAS=28 tRP=12 tRC=40
n_cmd=242740 n_nop=227073 n_act=1479 n_pre=1463 n_req=7085 n_rd=8196 n_write=4529 bw_util=0.1048
n_activity=108964 dram_eff=0.2336
bk0: 516a 236118i bk1: 512a 236502i bk2: 512a 235942i bk3: 512a 236372i bk4: 512a 236040i bk5: 512a 236180i bk6: 512a 235590i bk7: 512a 236342i bk8: 512a 235376i bk9: 512a 236008i bk10: 512a 236990i bk11: 512a 236494i bk12: 512a 236656i bk13: 512a 237001i bk14: 512a 236929i bk15: 512a 236813i 
dram_util_bins: 0 0 0 0 0 0 0 0 0 0
dram_eff_bins: 0 0 0 0 0 0 0 0 0 0
mrqq: max=16 avg=0.549081

========= L2 cache stats =========
L2_cache_bank[0]: Access = 8913, Miss = 2050, Miss_rate = 0.230, Pending_hits = 1060, Reservation_fails = 209
L2_cache_bank[1]: Access = 9871, Miss = 2049, Miss_rate = 0.208, Pending_hits = 942, Reservation_fails = 149
L2_cache_bank[2]: Access = 9380, Miss = 2050, Miss_rate = 0.219, Pending_hits = 980, Reservation_fails = 100
L2_cache_bank[3]: Access = 9691, Miss = 2048, Miss_rate = 0.211, Pending_hits = 960, Reservation_fails = 0
L2_cache_bank[4]: Access = 9547, Miss = 2050, Miss_rate = 0.215, Pending_hits = 972, Reservation_fails = 210
L2_cache_bank[5]: Access = 8926, Miss = 2048, Miss_rate = 0.229, Pending_hits = 1069, Reservation_fails = 1
L2_cache_bank[6]: Access = 9384, Miss = 2050, Miss_rate = 0.218, Pending_hits = 968, Reservation_fails = 164
L2_cache_bank[7]: Access = 9349, Miss = 2048, Miss_rate = 0.219, Pending_hits = 954, Reservation_fails = 0
L2_cache_bank[8]: Access = 9249, Miss = 2050, Miss_rate = 0.222, Pending_hits = 1087, Reservation_fails = 192
L2_cache_bank[9]: Access = 9516, Miss = 2048, Miss_rate = 0.215, Pending_hits = 925, Reservation_fails = 81
L2_cache_bank[10]: Access = 9715, Miss = 2050, Miss_rate = 0.211, Pending_hits = 982, Reservation_fails = 163
L2_cache_bank[11]: Access = 9355, Miss = 2048, Miss_rate = 0.219, Pending_hits = 932, Reservation_fails = 0
L2_total_cache_accesses = 112896
L2_total_cache_misses = 24589
L2_total_cache_miss_rate = 0.2178
L2_total_cache_pending_hits = 11831
L2_total_cache_reservation_fails = 1269
L2_total_cache_breakdown:
	L2_cache_stats_breakdown[GLOBAL_ACC_R][HIT] = 61695
	L2_cache_stats_breakdown[GLOBAL_ACC_R][HIT_RESERVED] = 7499
	L2_cache_stats_breakdown[GLOBAL_ACC_R][MISS] = 16384
	L2_cache_stats_breakdown[GLOBAL_ACC_R][RESERVATION_FAIL] = 186
	L2_cache_stats_breakdown[GLOBAL_ACC_W][HIT] = 14649
	L2_cache_stats_breakdown[GLOBAL_ACC_W][HIT_RESERVED] = 4295
	L2_cache_stats_breakdown[GLOBAL_ACC_W][MISS] = 8192
	L2_cache_stats_breakdown[GLOBAL_ACC_W][RESERVATION_FAIL] = 11
	L2_cache_stats_breakdown[INST_ACC_R][HIT] = 132
	L2_cache_stats_breakdown[INST_ACC_R][HIT_RESERVED] = 37
	L2_cache_stats_breakdown[INST_ACC_R][MISS] = 13
	L2_cache_stats_breakdown[INST_ACC_R][RESERVATION_FAIL] = 1072
L2_cache_data_port_util = 0.133
L2_cache_fill_port_util = 0.044

icnt_total_pkts_mem_to_simt=455936
icnt_total_pkts_simt_to_mem=167680
LD_mem_lat_dist  0 0 0 0 0 0 0 0 0 0 0 0 0 0 0 0 0 0 0 0 0 0 0 0 0 0 0
ST_mem_lat_dist  0 0 0 0 0 0 0 0 0 0 0 0 0 0 0 0 0 0 0 0 0 0 0 0 0 0 0
----------------------------Interconnect-DETAILS--------------------------------
Class 0:
Packet latency average = 14.2625
	minimum = 6
	maximum = 166
Network latency average = 12.1968
	minimum = 6
	maximum = 150
Slowest packet = 4411
Flit latency average = 11.4244
	minimum = 6
	maximum = 146
Slowest flit = 14774
Fragmentation average = 0.00104078
	minimum = 0
	maximum = 133
Injected packet rate average = 0.0466645
	minimum = 0.0406822 (at node 1)
	maximum = 0.0530411 (at node 15)
Accepted packet rate average = 0.0466645
	minimum = 0.0406822 (at node 1)
	maximum = 0.0530411 (at node 15)
Injected flit rate average = 0.128883
	minimum = 0.0615311 (at node 1)
	maximum = 0.2139 (at node 15)
Accepted flit rate average= 0.128883
	minimum = 0.0726971 (at node 19)
	maximum = 0.180875 (at node 6)
Injected packet length average = 2.7619
Accepted packet length average = 2.7619
Total in-flight flits = 0 (0 measured)
====== Overall Traffic Statistics ======
====== Traffic class 0 ======
Packet latency average = 14.2625 (1 samples)
	minimum = 6 (1 samples)
	maximum = 166 (1 samples)
Network latency average = 12.1968 (1 samples)
	minimum = 6 (1 samples)
	maximum = 150 (1 samples)
Flit latency average = 11.4244 (1 samples)
	minimum = 6 (1 samples)
	maximum = 146 (1 samples)
Fragmentation average = 0.00104078 (1 samples)
	minimum = 0 (1 samples)
	maximum = 133 (1 samples)
Injected packet rate average = 0.0466645 (1 samples)
	minimum = 0.0406822 (1 samples)
	maximum = 0.0530411 (1 samples)
Accepted packet rate average = 0.0466645 (1 samples)
	minimum = 0.0406822 (1 samples)
	maximum = 0.0530411 (1 samples)
Injected flit rate average = 0.128883 (1 samples)
	minimum = 0.0615311 (1 samples)
	maximum = 0.2139 (1 samples)
Accepted flit rate average = 0.128883 (1 samples)
	minimum = 0.0726971 (1 samples)
	maximum = 0.180875 (1 samples)
Injected packet size average = 2.7619 (1 samples)
Accepted packet size average = 2.7619 (1 samples)
Hops average = 1 (1 samples)
----------------------------END-of-Interconnect-DETAILS-------------------------


gpgpu_simulation_time = 0 days, 0 hrs, 2 min, 30 sec (150 sec)
gpgpu_simulation_rate = 593891 (inst/sec)
gpgpu_simulation_rate = 1240 (cycle/sec)
Ending simulation
