

        *** GPGPU-Sim Simulator Version 3.2.2  [build 17315] ***


GPGPU-Sim PTX: simulation mode 0 (can change with PTX_SIM_MODE_FUNC environment variable:
               1=functional simulation only, 0=detailed performance simulator)
GPGPU-Sim: Configuration options:

-network_mode                           1 # Interconnection network mode
-inter_config_file   config_fermi_islip.icnt # Interconnection network config file
-gpgpu_ptx_use_cuobjdump                    1 # Use cuobjdump to extract ptx and sass from binaries
-gpgpu_experimental_lib_support                    0 # Try to extract code from cuda libraries [Broken because of unknown cudaGetExportTable]
-gpgpu_ptx_convert_to_ptxplus                    1 # Convert SASS (native ISA) to ptxplus and run ptxplus
-gpgpu_ptx_force_max_capability                   20 # Force maximum compute capability
-gpgpu_ptx_inst_debug_to_file                    0 # Dump executed instructions' debug information to file
-gpgpu_ptx_inst_debug_file       inst_debug.txt # Executed instructions' debug output file
-gpgpu_ptx_inst_debug_thread_uid                    1 # Thread UID for executed instructions' debug output
-gpgpu_simd_model                       1 # 1 = post-dominator
-gpgpu_shader_core_pipeline              1536:32 # shader core pipeline config, i.e., {<nthread>:<warpsize>}
-gpgpu_tex_cache:l1  4:128:24,L:R:m:N,F:128:4,128:2 # per-shader L1 texture cache  (READ-ONLY) config  {<nsets>:<bsize>:<assoc>,<rep>:<wr>:<alloc>:<wr_alloc>,<mshr>:<N>:<merge>,<mq>:<rf>}
-gpgpu_const_cache:l1 64:64:2,L:R:f:N,A:2:32,4 # per-shader L1 constant memory cache  (READ-ONLY) config  {<nsets>:<bsize>:<assoc>,<rep>:<wr>:<alloc>:<wr_alloc>,<mshr>:<N>:<merge>,<mq>} 
-gpgpu_cache:il1     4:128:4,L:R:f:N,A:2:32,4 # shader L1 instruction cache config  {<nsets>:<bsize>:<assoc>,<rep>:<wr>:<alloc>:<wr_alloc>,<mshr>:<N>:<merge>,<mq>} 
-gpgpu_cache:dl1     32:128:4,L:L:m:N,A:32:8,8 # per-shader L1 data cache config  {<nsets>:<bsize>:<assoc>,<rep>:<wr>:<alloc>:<wr_alloc>,<mshr>:<N>:<merge>,<mq> | none}
-gpgpu_cache:dl1PrefL1                 none # per-shader L1 data cache config  {<nsets>:<bsize>:<assoc>,<rep>:<wr>:<alloc>:<wr_alloc>,<mshr>:<N>:<merge>,<mq> | none}
-gpgpu_cache:dl1PreShared                 none # per-shader L1 data cache config  {<nsets>:<bsize>:<assoc>,<rep>:<wr>:<alloc>:<wr_alloc>,<mshr>:<N>:<merge>,<mq> | none}
-gmem_skip_L1D                          0 # global memory access skip L1D cache (implements -Xptxas -dlcm=cg, default=no skip)
-gpgpu_perfect_mem                      0 # enable perfect memory mode (no cache miss)
-n_regfile_gating_group                    4 # group of lanes that should be read/written together)
-gpgpu_clock_gated_reg_file                    0 # enable clock gated reg file for power calculations
-gpgpu_clock_gated_lanes                    0 # enable clock gated lanes for power calculations
-gpgpu_shader_registers                32768 # Number of registers per shader core. Limits number of concurrent CTAs. (default 8192)
-gpgpu_shader_cta                       8 # Maximum number of concurrent CTAs in shader (default 8)
-gpgpu_n_clusters                      14 # number of processing clusters
-gpgpu_n_cores_per_cluster                    1 # number of simd cores per cluster
-gpgpu_n_cluster_ejection_buffer_size                    8 # number of packets in ejection buffer
-gpgpu_n_ldst_response_buffer_size                    2 # number of response packets in ld/st unit ejection buffer
-gpgpu_shmem_size                   16384 # Size of shared memory per shader core (default 16kB)
-gpgpu_shmem_size                   16384 # Size of shared memory per shader core (default 16kB)
-gpgpu_shmem_size_PrefL1                16384 # Size of shared memory per shader core (default 16kB)
-gpgpu_shmem_size_PrefShared                16384 # Size of shared memory per shader core (default 16kB)
-gpgpu_shmem_num_banks                   32 # Number of banks in the shared memory in each shader core (default 16)
-gpgpu_shmem_limited_broadcast                    0 # Limit shared memory to do one broadcast per cycle (default on)
-gpgpu_shmem_warp_parts                    1 # Number of portions a warp is divided into for shared memory bank conflict check 
-gpgpu_warpdistro_shader                   -1 # Specify which shader core to collect the warp size distribution from
-gpgpu_warp_issue_shader                    0 # Specify which shader core to collect the warp issue distribution from
-gpgpu_local_mem_map                    1 # Mapping from local memory space address to simulated GPU physical address space (default = enabled)
-gpgpu_num_reg_banks                   16 # Number of register banks (default = 8)
-gpgpu_reg_bank_use_warp_id                    0 # Use warp ID in mapping registers to banks (default = off)
-gpgpu_operand_collector_num_units_sp                    6 # number of collector units (default = 4)
-gpgpu_operand_collector_num_units_sfu                    8 # number of collector units (default = 4)
-gpgpu_operand_collector_num_units_mem                    2 # number of collector units (default = 2)
-gpgpu_operand_collector_num_units_gen                    0 # number of collector units (default = 0)
-gpgpu_operand_collector_num_in_ports_sp                    2 # number of collector unit in ports (default = 1)
-gpgpu_operand_collector_num_in_ports_sfu                    1 # number of collector unit in ports (default = 1)
-gpgpu_operand_collector_num_in_ports_mem                    1 # number of collector unit in ports (default = 1)
-gpgpu_operand_collector_num_in_ports_gen                    0 # number of collector unit in ports (default = 0)
-gpgpu_operand_collector_num_out_ports_sp                    2 # number of collector unit in ports (default = 1)
-gpgpu_operand_collector_num_out_ports_sfu                    1 # number of collector unit in ports (default = 1)
-gpgpu_operand_collector_num_out_ports_mem                    1 # number of collector unit in ports (default = 1)
-gpgpu_operand_collector_num_out_ports_gen                    0 # number of collector unit in ports (default = 0)
-gpgpu_coalesce_arch                   13 # Coalescing arch (default = 13, anything else is off for now)
-gpgpu_num_sched_per_core                    2 # Number of warp schedulers per core
-gpgpu_max_insn_issue_per_warp                    1 # Max number of instructions that can be issued per warp in one cycle by scheduler
-gpgpu_simt_core_sim_order                    1 # Select the simulation order of cores in a cluster (0=Fix, 1=Round-Robin)
-gpgpu_pipeline_widths        2,1,1,2,1,1,2 # Pipeline widths ID_OC_SP,ID_OC_SFU,ID_OC_MEM,OC_EX_SP,OC_EX_SFU,OC_EX_MEM,EX_WB
-gpgpu_num_sp_units                     2 # Number of SP units (default=1)
-gpgpu_num_sfu_units                    1 # Number of SF units (default=1)
-gpgpu_num_mem_units                    1 # Number if ldst units (default=1) WARNING: not hooked up to anything
-gpgpu_scheduler                      lrr # Scheduler configuration: < lrr | gto | two_level_active > If two_level_active:<num_active_warps>:<inner_prioritization>:<outer_prioritization>For complete list of prioritization values see shader.h enum scheduler_prioritization_typeDefault: gto
-gpgpu_dram_scheduler                    1 # 0 = fifo, 1 = FR-FCFS (defaul)
-gpgpu_dram_partition_queues              8:8:8:8 # i2$:$2d:d2$:$2i
-l2_ideal                               0 # Use a ideal L2 cache that always hit
-gpgpu_cache:dl2     64:128:8,L:B:m:W,A:32:4,4:0,32 # unified banked L2 data cache config  {<nsets>:<bsize>:<assoc>,<rep>:<wr>:<alloc>:<wr_alloc>,<mshr>:<N>:<merge>,<mq>}
-gpgpu_cache:dl2_texture_only                    0 # L2 cache used for texture only
-gpgpu_n_mem                            6 # number of memory modules (e.g. memory controllers) in gpu
-gpgpu_n_sub_partition_per_mchannel                    2 # number of memory subpartition in each memory module
-gpgpu_n_mem_per_ctrlr                    2 # number of memory chips per memory controller
-gpgpu_memlatency_stat                    0 # track and display latency statistics 0x2 enables MC, 0x4 enables queue logs
-gpgpu_frfcfs_dram_sched_queue_size                   16 # 0 = unlimited (default); # entries per chip
-gpgpu_dram_return_queue_size                  114 # 0 = unlimited (default); # entries per chip
-gpgpu_dram_buswidth                    4 # default = 4 bytes (8 bytes per cycle at DDR)
-gpgpu_dram_burst_length                    8 # Burst length of each DRAM request (default = 4 data bus cycle)
-dram_data_command_freq_ratio                    4 # Frequency ratio between DRAM data bus and command bus (default = 2 times, i.e. DDR)
-gpgpu_dram_timing_opt nbk=16:CCD=2:RRD=6:RCD=12:RAS=28:RP=12:RC=40: CL=12:WL=4:CDLR=5:WR=12:nbkgrp=4:CCDL=3:RTPL=2 # DRAM timing parameters = {nbk:tCCD:tRRD:tRCD:tRAS:tRP:tRC:CL:WL:tCDLR:tWR:nbkgrp:tCCDL:tRTPL}
-rop_latency                          120 # ROP queue latency (default 85)
-dram_latency                         100 # DRAM latency (default 30)
-gpgpu_mem_addr_mapping dramid@8;00000000.00000000.00000000.00000000.0000RRRR.RRRRRRRR.BBBCCCCB.CCSSSSSS # mapping memory address to dram model {dramid@<start bit>;<memory address map>}
-gpgpu_mem_addr_test                    0 # run sweep test to check address mapping for aliased address
-gpgpu_mem_address_mask                    1 # 0 = old addressing mask, 1 = new addressing mask, 2 = new add. mask + flipped bank sel and chip sel bits
-gpuwattch_xml_file         gpuwattch.xml # GPUWattch XML file
-power_simulation_enabled                    0 # Turn on power simulator (1=On, 0=Off)
-power_per_cycle_dump                    0 # Dump detailed power output each cycle
-power_trace_enabled                    0 # produce a file for the power trace (1=On, 0=Off)
-power_trace_zlevel                     6 # Compression level of the power trace output log (0=no comp, 9=highest)
-steady_power_levels_enabled                    0 # produce a file for the steady power levels (1=On, 0=Off)
-steady_state_definition                  8:4 # allowed deviation:number of samples
-gpgpu_max_cycle                        0 # terminates gpu simulation early (0 = no limit)
-gpgpu_max_insn                         0 # terminates gpu simulation early (0 = no limit)
-gpgpu_max_cta                          0 # terminates gpu simulation early (0 = no limit)
-gpgpu_runtime_stat             5000000:0 # display runtime statistics such as dram utilization {<freq>:<flag>}
-liveness_message_freq                    1 # Minimum number of seconds between simulation liveness messages (0 = always print)
-gpgpu_flush_l1_cache                    0 # Flush L1 cache at the end of each kernel call
-gpgpu_flush_l2_cache                    0 # Flush L2 cache at the end of each kernel call
-gpgpu_deadlock_detect                    1 # Stop the simulation at deadlock (1=on (default), 0=off)
-gpgpu_ptx_instruction_classification                    0 # if enabled will classify ptx instruction types per kernel (Max 255 kernels now)
-gpgpu_ptx_sim_mode                     0 # Select between Performance (default) or Functional simulation (1)
-gpgpu_clock_domains 575.0:575.0:575.0:750.0 # Clock Domain Frequencies in MhZ {<Core Clock>:<ICNT Clock>:<L2 Clock>:<DRAM Clock>}
-gpgpu_max_concurrent_kernel                    8 # maximum kernels that can run concurrently on GPU
-gpgpu_cflog_interval                    0 # Interval between each snapshot in control flow logger
-visualizer_enabled                     0 # Turn on visualizer output (1=On, 0=Off)
-visualizer_outputfile                 NULL # Specifies the output log file for visualizer
-visualizer_zlevel                      6 # Compression level of the visualizer output log (0=no comp, 9=highest)
-trace_enabled                          0 # Turn on traces
-trace_components                    none # comma seperated list of traces to enable. Complete list found in trace_streams.tup. Default none
-trace_sampling_core                    0 # The core which is printed using CORE_DPRINTF. Default 0
-trace_sampling_memory_partition                   -1 # The memory partition which is printed using MEMPART_DPRINTF. Default -1 (i.e. all)
-enable_ptx_file_line_stats                    0 # Turn on PTX source line statistic profiling. (1 = On)
-ptx_line_stats_filename gpgpu_inst_stats.txt # Output file for PTX source line statistics.
-save_embedded_ptx                      0 # saves ptx files embedded in binary as <n>.ptx
-keep                                   0 # keep intermediate files created by GPGPU-Sim when interfacing with external programs
-gpgpu_ptx_save_converted_ptxplus                    1 # Saved converted ptxplus to a file
-ptx_opcode_latency_int         4,13,4,5,145 # Opcode latencies for integers <ADD,MAX,MUL,MAD,DIV>Default 1,1,19,25,145
-ptx_opcode_latency_fp          4,13,4,5,39 # Opcode latencies for single precision floating points <ADD,MAX,MUL,MAD,DIV>Default 1,1,1,1,30
-ptx_opcode_latency_dp         8,19,8,8,330 # Opcode latencies for double precision floating points <ADD,MAX,MUL,MAD,DIV>Default 8,8,8,8,335
-ptx_opcode_initiation_int            1,2,2,1,8 # Opcode initiation intervals for integers <ADD,MAX,MUL,MAD,DIV>Default 1,1,4,4,32
-ptx_opcode_initiation_fp            1,2,1,1,4 # Opcode initiation intervals for single precision floating points <ADD,MAX,MUL,MAD,DIV>Default 1,1,1,1,5
-ptx_opcode_initiation_dp         8,16,8,8,130 # Opcode initiation intervals for double precision floating points <ADD,MAX,MUL,MAD,DIV>Default 8,8,8,8,130
DRAM Timing Options:
nbk                                    16 # number of banks
CCD                                     2 # column to column delay
RRD                                     6 # minimal delay between activation of rows in different banks
RCD                                    12 # row to column delay
RAS                                    28 # time needed to activate row
RP                                     12 # time needed to precharge (deactivate) row
RC                                     40 # row cycle time
CDLR                                    5 # switching from write to read (changes tWTR)
WR                                     12 # last data-in to row precharge
CL                                     12 # CAS latency
WL                                      4 # Write latency
nbkgrp                                  4 # number of bank groups
CCDL                                    3 # column to column delay between accesses to different bank groups
RTPL                                    2 # read to precharge delay between accesses to different bank groups
Total number of memory sub partition = 12
addr_dec_mask[CHIP]  = 0000000000000000 	high:64 low:0
addr_dec_mask[BK]    = 000000000000e100 	high:16 low:8
addr_dec_mask[ROW]   = 000000000fff0000 	high:28 low:16
addr_dec_mask[COL]   = 0000000000001eff 	high:13 low:0
addr_dec_mask[BURST] = 000000000000003f 	high:6 low:0
sub_partition_id_mask = 0000000000000100
GPGPU-Sim uArch: clock freqs: 575000000.000000:575000000.000000:575000000.000000:750000000.000000
GPGPU-Sim uArch: clock periods: 0.00000000173913043478:0.00000000173913043478:0.00000000173913043478:0.00000000133333333333
*** Initializing Memory Statistics ***
GPGPU-Sim uArch: interconnect node map (shaderID+MemID to icntID)
GPGPU-Sim uArch: Memory nodes ID start from index: 14
GPGPU-Sim uArch:    0   1   2   3   4
GPGPU-Sim uArch:    5   6   7   8   9
GPGPU-Sim uArch:   10  11  12  13  14
GPGPU-Sim uArch:   15  16  17  18  19
GPGPU-Sim uArch:   20  21  22  23  24
GPGPU-Sim uArch:   25
GPGPU-Sim uArch: interconnect node reverse map (icntID to shaderID+MemID)
GPGPU-Sim uArch: Memory nodes start from ID: 14
GPGPU-Sim uArch:    0   1   2   3   4
GPGPU-Sim uArch:    5   6   7   8   9
GPGPU-Sim uArch:   10  11  12  13  14
GPGPU-Sim uArch:   15  16  17  18  19
GPGPU-Sim uArch:   20  21  22  23  24
GPGPU-Sim uArch:   25
33c7f3906d0d04f953c50f964505bedb  /home/vishwesh/Desktop/Register_Sharing_Pbm/rodinia_2.4/cuda/b+tree/b+tree.out
GPGPU-Sim uArch: performance model initialization complete.
GPGPU-Sim PTX: __cudaRegisterFatBinary, fat_cubin_handle = 1, filename=./kernel/kernel_gpu_cuda_wrapper.cu
self exe links to: /home/vishwesh/Desktop/Register_Sharing_Pbm/rodinia_2.4/cuda/b+tree/b+tree.out
Running md5sum using "md5sum /home/vishwesh/Desktop/Register_Sharing_Pbm/rodinia_2.4/cuda/b+tree/b+tree.out "
Running cuobjdump using "$CUDA_INSTALL_PATH/bin/cuobjdump -ptx -elf -sass /home/vishwesh/Desktop/Register_Sharing_Pbm/rodinia_2.4/cuda/b+tree/b+tree.out > _cuobjdump_complete_output_bC3Nkb"
Parsing file _cuobjdump_complete_output_bC3Nkb
######### cuobjdump parser ########
## Adding new section PTX
Adding ptx filename: _cuobjdump_1.ptx
Adding arch: sm_13
Adding identifier: ./kernel/kernel_gpu_cuda_wrapper.cu
## Adding new section ELF
Adding arch: sm_13
Adding identifier: ./kernel/kernel_gpu_cuda_wrapper.cu
## Adding new section PTX
Adding ptx filename: _cuobjdump_2.ptx
Adding arch: sm_13
Adding identifier: ./kernel/kernel_gpu_cuda_wrapper_2.cu
## Adding new section ELF
Adding arch: sm_13
Adding identifier: ./kernel/kernel_gpu_cuda_wrapper_2.cu
## Adding new section PTX
Adding ptx filename: _cuobjdump_3.ptx
Adding arch: sm_13
Adding identifier: ./util/cuda/cuda.cu
## Adding new section ELF
Adding arch: sm_13
Adding identifier: ./util/cuda/cuda.cu
Done parsing!!!
GPGPU-Sim: WARNING: Capability >= 20 are not supported in PTXPlus
	Setting forced_max_capability to 19
GPGPU-Sim PTX: __cudaRegisterFatBinary, fat_cubin_handle = 2, filename=./kernel/kernel_gpu_cuda_wrapper_2.cu
GPGPU-Sim PTX: __cudaRegisterFunction findRangeK : hostFun 0x0x406250, fat_cubin_handle = 2
GPGPU-Sim PTX: converting EMBEDDED .ptx file to ptxplus 
RUNNING cuobjdump_to_ptxplus ...
Parsing .elf file _cuobjdump_2.elf
()

Finished parsing .elf file _cuobjdump_2.elf
Parsing .ptx file _cuobjdump_2.ptx
Finished parsing .ptx file _cuobjdump_2.ptx
Parsing .sass file _cuobjdump_2.sass
Finished parsing .sass file _cuobjdump_2.sass
DONE. 
GPGPU-Sim PTX: calling cuobjdump_to_ptxplus
commandline: $GPGPUSIM_ROOT/build/$GPGPUSIM_CONFIG/cuobjdump_to_ptxplus/cuobjdump_to_ptxplus _cuobjdump_2.ptx _cuobjdump_2.sass _cuobjdump_2.elf _ptxplus_Dkygs2
GPGPU-Sim PTX: DONE converting EMBEDDED .ptx file to ptxplus 
GPGPU-Sim PTX: allocating constant region for "constant1findRangeK" from 0x100 to 0x10c (global memory space) 1
GPGPU-Sim PTX: PTX uses two scalar type intruction with literal operand.
GPGPU-Sim PTX: instruction assembly for function 'findRangeK'...   done.
GPGPU-Sim PTX: finding reconvergence points for 'findRangeK'...
GPGPU-Sim PTX: Warning detected predicated return/exit.
GPGPU-Sim PTX: Finding dominators for 'findRangeK'...
GPGPU-Sim PTX: Finding immediate dominators for 'findRangeK'...
GPGPU-Sim PTX: Finding postdominators for 'findRangeK'...
GPGPU-Sim PTX: Finding immediate postdominators for 'findRangeK'...
GPGPU-Sim PTX: pre-decoding instructions for 'findRangeK'...
GPGPU-Sim PTX: reconvergence points for findRangeK...
GPGPU-Sim PTX:  1 (potential) branch divergence @  PC=0x030 (_2.ptx:45) @$p0.ne bra l0x000002a0;
GPGPU-Sim PTX:    immediate post dominator      @  PC=0x2d0 (_2.ptx:133) l0x000002d0: ld.global.v2.u32 {$r0,$r1}, [$r8];
GPGPU-Sim PTX:  2 (potential) branch divergence @  PC=0x0e0 (_2.ptx:69) @$p1.ne bra l0x00000148;
GPGPU-Sim PTX:    immediate post dominator      @  PC=0x148 (_2.ptx:82) l0x00000148: nop;
GPGPU-Sim PTX:  3 (potential) branch divergence @  PC=0x100 (_2.ptx:73) @$p1.ne bra l0x00000148;
GPGPU-Sim PTX:    immediate post dominator      @  PC=0x148 (_2.ptx:82) l0x00000148: nop;
GPGPU-Sim PTX:  4 (potential) branch divergence @  PC=0x1b0 (_2.ptx:96) @$p1.ne bra l0x00000218;
GPGPU-Sim PTX:    immediate post dominator      @  PC=0x218 (_2.ptx:109) l0x00000218: nop;
GPGPU-Sim PTX:  5 (potential) branch divergence @  PC=0x1d0 (_2.ptx:100) @$p1.ne bra l0x00000218;
GPGPU-Sim PTX:    immediate post dominator      @  PC=0x218 (_2.ptx:109) l0x00000218: nop;
GPGPU-Sim PTX:  6 (potential) branch divergence @  PC=0x290 (_2.ptx:124) @$p1.ne bra l0x00000080;
GPGPU-Sim PTX:    immediate post dominator      @  PC=0x298 (_2.ptx:125) bra l0x000002d0;
GPGPU-Sim PTX:  7 (potential) branch divergence @  PC=0x298 (_2.ptx:125) bra l0x000002d0;
GPGPU-Sim PTX:    immediate post dominator      @  PC=0x2d0 (_2.ptx:133) l0x000002d0: ld.global.v2.u32 {$r0,$r1}, [$r8];
GPGPU-Sim PTX: ... end of reconvergence points for findRangeK
GPGPU-Sim PTX: ... done pre-decoding instructions for 'findRangeK'.
GPGPU-Sim PTX: finished parsing EMBEDDED .ptx file _2.ptx
Adding _cuobjdump_2.ptx with cubin handle 2
GPGPU-Sim PTX: extracting embedded .ptx to temporary file "_ptx_tDuLAT"
Running: cat _ptx_tDuLAT | sed 's/.version 1.5/.version 1.4/' | sed 's/, texmode_independent//' | sed 's/\(\.extern \.const\[1\] .b8 \w\+\)\[\]/\1\[1\]/' | sed 's/const\[.\]/const\[0\]/g' > _ptx2_Iu7gJK
GPGPU-Sim PTX: generating ptxinfo using "$CUDA_INSTALL_PATH/bin/ptxas --gpu-name=sm_20 -v _ptx2_Iu7gJK --output-file  /dev/null 2> _ptx_tDuLATinfo"
GPGPU-Sim PTX: Kernel 'findRangeK' : regs=23, lmem=0, smem=0, cmem=120
GPGPU-Sim PTX: removing ptxinfo using "rm -f _ptx_tDuLAT _ptx2_Iu7gJK _ptx_tDuLATinfo"
GPGPU-Sim PTX: loading globals with explicit initializers... 
GPGPU-Sim PTX: finished loading globals (0 bytes total).
GPGPU-Sim PTX: loading constants with explicit initializers...  done.
GPGPU-Sim PTX: __cudaRegisterFatBinary, fat_cubin_handle = 3, filename=./util/cuda/cuda.cu
Selecting device 0
Input File: ../../data/b+tree/mil.txt 
Command File: ../../data/b+tree/command.txt 
Command Buffer: 
j 6000 3000


Getting input from file ../../data/b+tree/mil.txt...
Transforming data to a GPU suitable structure...
Tree transformation took 0.094688
Waiting for command
> 
******command: j count=6000, rSize=6000 
knodes_elem=3953, knodes_unit_mem=4084, knodes_mem=16144052
GPGPU-Sim: synchronize waiting for inactive GPU simulation
GPGPU-Sim API: Stream Manager State
GPGPU-Sim: detected inactive GPU simulation thread
# of blocks = 6000, # of threads/block = 508 (ensure that device can handle)

GPGPU-Sim PTX: cudaLaunch for 0x0x406250 (mode=performance simulation) on stream 0
GPGPU-Sim PTX: pushing kernel 'findRangeK' to stream 0, gridDim= (6000,1,1) blockDim = (508,1,1) 
kernel 'findRangeK' transfer to GPU hardware scheduler
GPGPU-Sim uArch: Shader 1 bind to kernel 1 'findRangeK'
GPGPU-Sim uArch: CTA/core = 2, limited by: regs
GPGPU-Sim uArch: core:  1, cta: 0 initialized @(1,0)
GPGPU-Sim uArch: Shader 2 bind to kernel 1 'findRangeK'
GPGPU-Sim uArch: core:  2, cta: 0 initialized @(1,0)
GPGPU-Sim uArch: Shader 3 bind to kernel 1 'findRangeK'
GPGPU-Sim uArch: core:  3, cta: 0 initialized @(1,0)
GPGPU-Sim uArch: Shader 4 bind to kernel 1 'findRangeK'
GPGPU-Sim uArch: core:  4, cta: 0 initialized @(1,0)
GPGPU-Sim uArch: Shader 5 bind to kernel 1 'findRangeK'
GPGPU-Sim uArch: core:  5, cta: 0 initialized @(1,0)
GPGPU-Sim uArch: Shader 6 bind to kernel 1 'findRangeK'
GPGPU-Sim uArch: core:  6, cta: 0 initialized @(1,0)
GPGPU-Sim uArch: Shader 7 bind to kernel 1 'findRangeK'
GPGPU-Sim uArch: core:  7, cta: 0 initialized @(1,0)
GPGPU-Sim uArch: Shader 8 bind to kernel 1 'findRangeK'
GPGPU-Sim uArch: core:  8, cta: 0 initialized @(1,0)
GPGPU-Sim uArch: Shader 9 bind to kernel 1 'findRangeK'
GPGPU-Sim uArch: core:  9, cta: 0 initialized @(1,0)
GPGPU-Sim uArch: Shader 10 bind to kernel 1 'findRangeK'
GPGPU-Sim uArch: core: 10, cta: 0 initialized @(1,0)
GPGPU-Sim uArch: Shader 11 bind to kernel 1 'findRangeK'
GPGPU-Sim uArch: core: 11, cta: 0 initialized @(1,0)
GPGPU-Sim uArch: Shader 12 bind to kernel 1 'findRangeK'
GPGPU-Sim uArch: core: 12, cta: 0 initialized @(1,0)
GPGPU-Sim uArch: Shader 13 bind to kernel 1 'findRangeK'
GPGPU-Sim uArch: core: 13, cta: 0 initialized @(1,0)
GPGPU-Sim uArch: Shader 0 bind to kernel 1 'findRangeK'
GPGPU-Sim uArch: core:  0, cta: 0 initialized @(1,0)
GPGPU-Sim uArch: core:  1, cta: 1 initialized @(2,0)
GPGPU-Sim uArch: core:  2, cta: 1 initialized @(2,0)
GPGPU-Sim uArch: core:  3, cta: 1 initialized @(2,0)
GPGPU-Sim uArch: core:  4, cta: 1 initialized @(2,0)
GPGPU-Sim uArch: core:  5, cta: 1 initialized @(2,0)
GPGPU-Sim uArch: core:  6, cta: 1 initialized @(2,0)
GPGPU-Sim uArch: core:  7, cta: 1 initialized @(2,0)
GPGPU-Sim uArch: core:  8, cta: 1 initialized @(2,0)
GPGPU-Sim uArch: core:  9, cta: 1 initialized @(2,0)
GPGPU-Sim uArch: core: 10, cta: 1 initialized @(2,0)
GPGPU-Sim uArch: core: 11, cta: 1 initialized @(2,0)
GPGPU-Sim uArch: core: 12, cta: 1 initialized @(2,0)
GPGPU-Sim uArch: core: 13, cta: 1 initialized @(2,0)
GPGPU-Sim uArch: core:  0, cta: 1 initialized @(2,0)
GPGPU-Sim PTX: WARNING (_2.ptx:38) ** reading undefined register '$r124' (cuid:0). Setting to 0X00000000. This is okay if you are simulating the native ISA
GPGPU-Sim uArch: Shader 2 finished CTA #0 (8591,0), 1 CTAs running
GPGPU-Sim uArch: core:  2, cta: 0 initialized @(8592,0)
GPGPU-Sim uArch: Shader 9 finished CTA #1 (8608,0), 1 CTAs running
GPGPU-Sim uArch: core:  9, cta: 1 initialized @(8609,0)
GPGPU-Sim uArch: Shader 10 finished CTA #1 (8610,0), 1 CTAs running
GPGPU-Sim uArch: core: 10, cta: 1 initialized @(8611,0)
GPGPU-Sim uArch: Shader 13 finished CTA #0 (8612,0), 1 CTAs running
GPGPU-Sim uArch: core: 13, cta: 0 initialized @(8613,0)
GPGPU-Sim uArch: Shader 5 finished CTA #1 (8614,0), 1 CTAs running
GPGPU-Sim uArch: core:  5, cta: 1 initialized @(8615,0)
GPGPU-Sim uArch: Shader 8 finished CTA #1 (8616,0), 1 CTAs running
GPGPU-Sim uArch: core:  8, cta: 1 initialized @(8617,0)
GPGPU-Sim uArch: Shader 11 finished CTA #1 (8618,0), 1 CTAs running
GPGPU-Sim uArch: core: 11, cta: 1 initialized @(8619,0)
GPGPU-Sim uArch: Shader 3 finished CTA #1 (8620,0), 1 CTAs running
GPGPU-Sim uArch: core:  3, cta: 1 initialized @(8621,0)
GPGPU-Sim uArch: Shader 7 finished CTA #0 (8622,0), 1 CTAs running
GPGPU-Sim uArch: core:  7, cta: 0 initialized @(8623,0)
GPGPU-Sim uArch: Shader 0 finished CTA #0 (8624,0), 1 CTAs running
GPGPU-Sim uArch: core:  0, cta: 0 initialized @(8625,0)
GPGPU-Sim uArch: Shader 5 finished CTA #0 (8631,0), 1 CTAs running
GPGPU-Sim uArch: core:  5, cta: 0 initialized @(8632,0)
GPGPU-Sim uArch: Shader 6 finished CTA #0 (8632,0), 1 CTAs running
GPGPU-Sim uArch: core:  6, cta: 0 initialized @(8633,0)
GPGPU-Sim uArch: Shader 1 finished CTA #1 (8636,0), 1 CTAs running
GPGPU-Sim uArch: core:  1, cta: 1 initialized @(8637,0)
GPGPU-Sim uArch: Shader 4 finished CTA #1 (8638,0), 1 CTAs running
GPGPU-Sim uArch: core:  4, cta: 1 initialized @(8639,0)
GPGPU-Sim uArch: Shader 2 finished CTA #1 (8640,0), 1 CTAs running
GPGPU-Sim uArch: core:  2, cta: 1 initialized @(8641,0)
GPGPU-Sim uArch: Shader 9 finished CTA #0 (8641,0), 1 CTAs running
GPGPU-Sim uArch: core:  9, cta: 0 initialized @(8642,0)
GPGPU-Sim uArch: Shader 13 finished CTA #1 (8645,0), 1 CTAs running
GPGPU-Sim uArch: core: 13, cta: 1 initialized @(8646,0)
GPGPU-Sim uArch: Shader 12 finished CTA #1 (8648,0), 1 CTAs running
GPGPU-Sim uArch: core: 12, cta: 1 initialized @(8649,0)
GPGPU-Sim uArch: Shader 4 finished CTA #0 (8666,0), 1 CTAs running
GPGPU-Sim uArch: core:  4, cta: 0 initialized @(8667,0)
GPGPU-Sim uArch: Shader 0 finished CTA #1 (8673,0), 1 CTAs running
GPGPU-Sim uArch: core:  0, cta: 1 initialized @(8674,0)
GPGPU-Sim uArch: Shader 3 finished CTA #0 (8703,0), 1 CTAs running
GPGPU-Sim uArch: core:  3, cta: 0 initialized @(8704,0)
GPGPU-Sim uArch: Shader 6 finished CTA #1 (8715,0), 1 CTAs running
GPGPU-Sim uArch: core:  6, cta: 1 initialized @(8716,0)
GPGPU-Sim uArch: Shader 1 finished CTA #0 (8735,0), 1 CTAs running
GPGPU-Sim uArch: core:  1, cta: 0 initialized @(8736,0)
GPGPU-Sim uArch: Shader 11 finished CTA #0 (8742,0), 1 CTAs running
GPGPU-Sim uArch: core: 11, cta: 0 initialized @(8743,0)
GPGPU-Sim uArch: Shader 8 finished CTA #0 (8754,0), 1 CTAs running
GPGPU-Sim uArch: core:  8, cta: 0 initialized @(8755,0)
GPGPU-Sim uArch: Shader 12 finished CTA #0 (8756,0), 1 CTAs running
GPGPU-Sim uArch: core: 12, cta: 0 initialized @(8757,0)
GPGPU-Sim uArch: Shader 10 finished CTA #0 (8767,0), 1 CTAs running
GPGPU-Sim uArch: core: 10, cta: 0 initialized @(8768,0)
GPGPU-Sim uArch: Shader 7 finished CTA #1 (8842,0), 1 CTAs running
GPGPU-Sim uArch: core:  7, cta: 1 initialized @(8843,0)
GPGPU-Sim uArch: Shader 10 finished CTA #1 (14238,0), 1 CTAs running
GPGPU-Sim uArch: core: 10, cta: 1 initialized @(14239,0)
GPGPU-Sim uArch: Shader 8 finished CTA #1 (14842,0), 1 CTAs running
GPGPU-Sim uArch: core:  8, cta: 1 initialized @(14843,0)
GPGPU-Sim uArch: Shader 2 finished CTA #0 (14853,0), 1 CTAs running
GPGPU-Sim uArch: core:  2, cta: 0 initialized @(14854,0)
GPGPU-Sim uArch: Shader 10 finished CTA #0 (14867,0), 1 CTAs running
GPGPU-Sim uArch: core: 10, cta: 0 initialized @(14868,0)
GPGPU-Sim uArch: Shader 4 finished CTA #0 (14907,0), 1 CTAs running
GPGPU-Sim uArch: core:  4, cta: 0 initialized @(14908,0)
GPGPU-Sim uArch: Shader 2 finished CTA #1 (14911,0), 1 CTAs running
GPGPU-Sim uArch: core:  2, cta: 1 initialized @(14912,0)
GPGPU-Sim uArch: Shader 0 finished CTA #0 (14917,0), 1 CTAs running
GPGPU-Sim uArch: core:  0, cta: 0 initialized @(14918,0)
GPGPU-Sim uArch: Shader 0 finished CTA #1 (14934,0), 1 CTAs running
GPGPU-Sim uArch: core:  0, cta: 1 initialized @(14935,0)
GPGPU-Sim uArch: Shader 9 finished CTA #0 (14947,0), 1 CTAs running
GPGPU-Sim uArch: core:  9, cta: 0 initialized @(14948,0)
GPGPU-Sim uArch: Shader 13 finished CTA #0 (14949,0), 1 CTAs running
GPGPU-Sim uArch: core: 13, cta: 0 initialized @(14950,0)
GPGPU-Sim uArch: Shader 9 finished CTA #1 (14964,0), 1 CTAs running
GPGPU-Sim uArch: core:  9, cta: 1 initialized @(14965,0)
GPGPU-Sim uArch: Shader 12 finished CTA #1 (14967,0), 1 CTAs running
GPGPU-Sim uArch: core: 12, cta: 1 initialized @(14968,0)
GPGPU-Sim uArch: Shader 4 finished CTA #1 (15031,0), 1 CTAs running
GPGPU-Sim uArch: core:  4, cta: 1 initialized @(15032,0)
GPGPU-Sim uArch: Shader 11 finished CTA #1 (15033,0), 1 CTAs running
GPGPU-Sim uArch: core: 11, cta: 1 initialized @(15034,0)
GPGPU-Sim uArch: Shader 13 finished CTA #1 (15048,0), 1 CTAs running
GPGPU-Sim uArch: core: 13, cta: 1 initialized @(15049,0)
GPGPU-Sim uArch: Shader 5 finished CTA #0 (15073,0), 1 CTAs running
GPGPU-Sim uArch: core:  5, cta: 0 initialized @(15074,0)
GPGPU-Sim uArch: Shader 6 finished CTA #1 (15081,0), 1 CTAs running
GPGPU-Sim uArch: core:  6, cta: 1 initialized @(15082,0)
GPGPU-Sim uArch: Shader 12 finished CTA #0 (15082,0), 1 CTAs running
GPGPU-Sim uArch: core: 12, cta: 0 initialized @(15083,0)
GPGPU-Sim uArch: Shader 8 finished CTA #0 (15101,0), 1 CTAs running
GPGPU-Sim uArch: core:  8, cta: 0 initialized @(15102,0)
GPGPU-Sim uArch: Shader 1 finished CTA #1 (15105,0), 1 CTAs running
GPGPU-Sim uArch: core:  1, cta: 1 initialized @(15106,0)
GPGPU-Sim uArch: Shader 5 finished CTA #1 (15106,0), 1 CTAs running
GPGPU-Sim uArch: core:  5, cta: 1 initialized @(15107,0)
GPGPU-Sim uArch: Shader 3 finished CTA #1 (15127,0), 1 CTAs running
GPGPU-Sim uArch: core:  3, cta: 1 initialized @(15128,0)
GPGPU-Sim uArch: Shader 11 finished CTA #0 (15164,0), 1 CTAs running
GPGPU-Sim uArch: core: 11, cta: 0 initialized @(15165,0)
GPGPU-Sim uArch: Shader 1 finished CTA #0 (15213,0), 1 CTAs running
GPGPU-Sim uArch: core:  1, cta: 0 initialized @(15214,0)
GPGPU-Sim uArch: Shader 3 finished CTA #0 (15219,0), 1 CTAs running
GPGPU-Sim uArch: core:  3, cta: 0 initialized @(15220,0)
GPGPU-Sim uArch: Shader 7 finished CTA #0 (15221,0), 1 CTAs running
GPGPU-Sim uArch: core:  7, cta: 0 initialized @(15222,0)
GPGPU-Sim uArch: Shader 6 finished CTA #0 (15303,0), 1 CTAs running
GPGPU-Sim uArch: core:  6, cta: 0 initialized @(15304,0)
GPGPU-Sim uArch: Shader 7 finished CTA #1 (15454,0), 1 CTAs running
GPGPU-Sim uArch: core:  7, cta: 1 initialized @(15455,0)
GPGPU-Sim uArch: Shader 10 finished CTA #1 (19441,0), 1 CTAs running
GPGPU-Sim uArch: core: 10, cta: 1 initialized @(19442,0)
GPGPU-Sim uArch: Shader 10 finished CTA #0 (19660,0), 1 CTAs running
GPGPU-Sim uArch: core: 10, cta: 0 initialized @(19661,0)
GPGPU-Sim uArch: Shader 0 finished CTA #0 (20352,0), 1 CTAs running
GPGPU-Sim uArch: core:  0, cta: 0 initialized @(20353,0)
GPGPU-Sim uArch: Shader 2 finished CTA #1 (20446,0), 1 CTAs running
GPGPU-Sim uArch: core:  2, cta: 1 initialized @(20447,0)
GPGPU-Sim uArch: Shader 2 finished CTA #0 (20502,0), 1 CTAs running
GPGPU-Sim uArch: core:  2, cta: 0 initialized @(20503,0)
GPGPU-Sim uArch: Shader 0 finished CTA #1 (20518,0), 1 CTAs running
GPGPU-Sim uArch: core:  0, cta: 1 initialized @(20519,0)
GPGPU-Sim uArch: Shader 8 finished CTA #0 (21278,0), 1 CTAs running
GPGPU-Sim uArch: core:  8, cta: 0 initialized @(21279,0)
GPGPU-Sim uArch: Shader 9 finished CTA #1 (21296,0), 1 CTAs running
GPGPU-Sim uArch: core:  9, cta: 1 initialized @(21297,0)
GPGPU-Sim uArch: Shader 12 finished CTA #0 (21298,0), 1 CTAs running
GPGPU-Sim uArch: core: 12, cta: 0 initialized @(21299,0)
GPGPU-Sim uArch: Shader 1 finished CTA #0 (21304,0), 1 CTAs running
GPGPU-Sim uArch: core:  1, cta: 0 initialized @(21305,0)
GPGPU-Sim uArch: Shader 4 finished CTA #1 (21310,0), 1 CTAs running
GPGPU-Sim uArch: core:  4, cta: 1 initialized @(21311,0)
GPGPU-Sim uArch: Shader 13 finished CTA #1 (21315,0), 1 CTAs running
GPGPU-Sim uArch: core: 13, cta: 1 initialized @(21316,0)
GPGPU-Sim uArch: Shader 7 finished CTA #0 (21326,0), 1 CTAs running
GPGPU-Sim uArch: core:  7, cta: 0 initialized @(21327,0)
GPGPU-Sim uArch: Shader 13 finished CTA #0 (21332,0), 1 CTAs running
GPGPU-Sim uArch: core: 13, cta: 0 initialized @(21333,0)
GPGPU-Sim uArch: Shader 9 finished CTA #0 (21345,0), 1 CTAs running
GPGPU-Sim uArch: core:  9, cta: 0 initialized @(21346,0)
GPGPU-Sim uArch: Shader 5 finished CTA #0 (21347,0), 1 CTAs running
GPGPU-Sim uArch: core:  5, cta: 0 initialized @(21348,0)
GPGPU-Sim uArch: Shader 12 finished CTA #1 (21354,0), 1 CTAs running
GPGPU-Sim uArch: core: 12, cta: 1 initialized @(21355,0)
GPGPU-Sim uArch: Shader 11 finished CTA #1 (21358,0), 1 CTAs running
GPGPU-Sim uArch: core: 11, cta: 1 initialized @(21359,0)
GPGPU-Sim uArch: Shader 8 finished CTA #1 (21370,0), 1 CTAs running
GPGPU-Sim uArch: core:  8, cta: 1 initialized @(21371,0)
GPGPU-Sim uArch: Shader 11 finished CTA #0 (21375,0), 1 CTAs running
GPGPU-Sim uArch: core: 11, cta: 0 initialized @(21376,0)
GPGPU-Sim uArch: Shader 5 finished CTA #1 (21403,0), 1 CTAs running
GPGPU-Sim uArch: core:  5, cta: 1 initialized @(21404,0)
GPGPU-Sim uArch: Shader 7 finished CTA #1 (21441,0), 1 CTAs running
GPGPU-Sim uArch: core:  7, cta: 1 initialized @(21442,0)
GPGPU-Sim uArch: Shader 1 finished CTA #1 (21485,0), 1 CTAs running
GPGPU-Sim uArch: core:  1, cta: 1 initialized @(21486,0)
GPGPU-Sim uArch: Shader 3 finished CTA #1 (21495,0), 1 CTAs running
GPGPU-Sim uArch: core:  3, cta: 1 initialized @(21496,0)
GPGPU-Sim uArch: Shader 4 finished CTA #0 (21514,0), 1 CTAs running
GPGPU-Sim uArch: core:  4, cta: 0 initialized @(21515,0)
GPGPU-Sim uArch: Shader 3 finished CTA #0 (21528,0), 1 CTAs running
GPGPU-Sim uArch: core:  3, cta: 0 initialized @(21529,0)
GPGPU-Sim uArch: Shader 6 finished CTA #0 (21577,0), 1 CTAs running
GPGPU-Sim uArch: core:  6, cta: 0 initialized @(21578,0)
GPGPU-Sim uArch: Shader 6 finished CTA #1 (21701,0), 1 CTAs running
GPGPU-Sim uArch: core:  6, cta: 1 initialized @(21702,0)
GPGPU-Sim uArch: Shader 10 finished CTA #1 (25135,0), 1 CTAs running
GPGPU-Sim uArch: core: 10, cta: 1 initialized @(25136,0)
GPGPU-Sim uArch: Shader 10 finished CTA #0 (25152,0), 1 CTAs running
GPGPU-Sim uArch: core: 10, cta: 0 initialized @(25153,0)
GPGPU-Sim uArch: Shader 0 finished CTA #1 (26075,0), 1 CTAs running
GPGPU-Sim uArch: core:  0, cta: 1 initialized @(26076,0)
GPGPU-Sim uArch: Shader 0 finished CTA #0 (26092,0), 1 CTAs running
GPGPU-Sim uArch: core:  0, cta: 0 initialized @(26093,0)
GPGPU-Sim uArch: Shader 2 finished CTA #1 (26330,0), 1 CTAs running
GPGPU-Sim uArch: core:  2, cta: 1 initialized @(26331,0)
GPGPU-Sim uArch: Shader 2 finished CTA #0 (26468,0), 1 CTAs running
GPGPU-Sim uArch: core:  2, cta: 0 initialized @(26469,0)
GPGPU-Sim uArch: Shader 13 finished CTA #1 (27495,0), 1 CTAs running
GPGPU-Sim uArch: core: 13, cta: 1 initialized @(27496,0)
GPGPU-Sim uArch: Shader 12 finished CTA #0 (27497,0), 1 CTAs running
GPGPU-Sim uArch: core: 12, cta: 0 initialized @(27498,0)
GPGPU-Sim uArch: Shader 4 finished CTA #1 (27499,0), 1 CTAs running
GPGPU-Sim uArch: core:  4, cta: 1 initialized @(27500,0)
GPGPU-Sim uArch: Shader 1 finished CTA #0 (27551,0), 1 CTAs running
GPGPU-Sim uArch: core:  1, cta: 0 initialized @(27552,0)
GPGPU-Sim uArch: Shader 3 finished CTA #1 (27670,0), 1 CTAs running
GPGPU-Sim uArch: core:  3, cta: 1 initialized @(27671,0)
GPGPU-Sim uArch: Shader 3 finished CTA #0 (27687,0), 1 CTAs running
GPGPU-Sim uArch: core:  3, cta: 0 initialized @(27688,0)
GPGPU-Sim uArch: Shader 12 finished CTA #1 (27693,0), 1 CTAs running
GPGPU-Sim uArch: core: 12, cta: 1 initialized @(27694,0)
GPGPU-Sim uArch: Shader 9 finished CTA #0 (27695,0), 1 CTAs running
GPGPU-Sim uArch: core:  9, cta: 0 initialized @(27696,0)
GPGPU-Sim uArch: Shader 6 finished CTA #0 (27697,0), 1 CTAs running
GPGPU-Sim uArch: core:  6, cta: 0 initialized @(27698,0)
GPGPU-Sim uArch: Shader 11 finished CTA #0 (27699,0), 1 CTAs running
GPGPU-Sim uArch: core: 11, cta: 0 initialized @(27700,0)
GPGPU-Sim uArch: Shader 7 finished CTA #1 (27703,0), 1 CTAs running
GPGPU-Sim uArch: core:  7, cta: 1 initialized @(27704,0)
GPGPU-Sim uArch: Shader 5 finished CTA #0 (27815,0), 1 CTAs running
GPGPU-Sim uArch: core:  5, cta: 0 initialized @(27816,0)
GPGPU-Sim uArch: Shader 7 finished CTA #0 (27818,0), 1 CTAs running
GPGPU-Sim uArch: core:  7, cta: 0 initialized @(27819,0)
GPGPU-Sim uArch: Shader 8 finished CTA #0 (27819,0), 1 CTAs running
GPGPU-Sim uArch: core:  8, cta: 0 initialized @(27820,0)
GPGPU-Sim uArch: Shader 5 finished CTA #1 (27830,0), 1 CTAs running
GPGPU-Sim uArch: core:  5, cta: 1 initialized @(27831,0)
GPGPU-Sim uArch: Shader 8 finished CTA #1 (27836,0), 1 CTAs running
GPGPU-Sim uArch: core:  8, cta: 1 initialized @(27837,0)
GPGPU-Sim uArch: Shader 11 finished CTA #1 (27837,0), 1 CTAs running
GPGPU-Sim uArch: core: 11, cta: 1 initialized @(27838,0)
GPGPU-Sim uArch: Shader 9 finished CTA #1 (27850,0), 1 CTAs running
GPGPU-Sim uArch: core:  9, cta: 1 initialized @(27851,0)
GPGPU-Sim uArch: Shader 6 finished CTA #1 (27914,0), 1 CTAs running
GPGPU-Sim uArch: core:  6, cta: 1 initialized @(27915,0)
GPGPU-Sim uArch: Shader 4 finished CTA #0 (28001,0), 1 CTAs running
GPGPU-Sim uArch: core:  4, cta: 0 initialized @(28002,0)
GPGPU-Sim uArch: Shader 13 finished CTA #0 (28281,0), 1 CTAs running
GPGPU-Sim uArch: core: 13, cta: 0 initialized @(28282,0)
GPGPU-Sim uArch: Shader 1 finished CTA #1 (28326,0), 1 CTAs running
GPGPU-Sim uArch: core:  1, cta: 1 initialized @(28327,0)
GPGPU-Sim uArch: Shader 10 finished CTA #1 (31370,0), 1 CTAs running
GPGPU-Sim uArch: core: 10, cta: 1 initialized @(31371,0)
GPGPU-Sim uArch: Shader 10 finished CTA #0 (31599,0), 1 CTAs running
GPGPU-Sim uArch: core: 10, cta: 0 initialized @(31600,0)
GPGPU-Sim uArch: Shader 2 finished CTA #0 (31863,0), 1 CTAs running
GPGPU-Sim uArch: core:  2, cta: 0 initialized @(31864,0)
GPGPU-Sim uArch: Shader 2 finished CTA #1 (31880,0), 1 CTAs running
GPGPU-Sim uArch: core:  2, cta: 1 initialized @(31881,0)
GPGPU-Sim uArch: Shader 0 finished CTA #1 (32077,0), 1 CTAs running
GPGPU-Sim uArch: core:  0, cta: 1 initialized @(32078,0)
GPGPU-Sim uArch: Shader 0 finished CTA #0 (32110,0), 1 CTAs running
GPGPU-Sim uArch: core:  0, cta: 0 initialized @(32111,0)
GPGPU-Sim uArch: Shader 12 finished CTA #0 (32791,0), 1 CTAs running
GPGPU-Sim uArch: core: 12, cta: 0 initialized @(32792,0)
GPGPU-Sim uArch: Shader 12 finished CTA #1 (32975,0), 1 CTAs running
GPGPU-Sim uArch: core: 12, cta: 1 initialized @(32976,0)
GPGPU-Sim uArch: Shader 13 finished CTA #1 (33099,0), 1 CTAs running
GPGPU-Sim uArch: core: 13, cta: 1 initialized @(33100,0)
GPGPU-Sim uArch: Shader 3 finished CTA #0 (33366,0), 1 CTAs running
GPGPU-Sim uArch: core:  3, cta: 0 initialized @(33367,0)
GPGPU-Sim uArch: Shader 4 finished CTA #1 (33488,0), 1 CTAs running
GPGPU-Sim uArch: core:  4, cta: 1 initialized @(33489,0)
GPGPU-Sim uArch: Shader 3 finished CTA #1 (33490,0), 1 CTAs running
GPGPU-Sim uArch: core:  3, cta: 1 initialized @(33491,0)
GPGPU-Sim uArch: Shader 1 finished CTA #0 (33629,0), 1 CTAs running
GPGPU-Sim uArch: core:  1, cta: 0 initialized @(33630,0)
GPGPU-Sim uArch: Shader 9 finished CTA #0 (33723,0), 1 CTAs running
GPGPU-Sim uArch: core:  9, cta: 0 initialized @(33724,0)
GPGPU-Sim uArch: Shader 8 finished CTA #0 (33749,0), 1 CTAs running
GPGPU-Sim uArch: core:  8, cta: 0 initialized @(33750,0)
GPGPU-Sim uArch: Shader 7 finished CTA #0 (33848,0), 1 CTAs running
GPGPU-Sim uArch: core:  7, cta: 0 initialized @(33849,0)
GPGPU-Sim uArch: Shader 11 finished CTA #0 (33920,0), 1 CTAs running
GPGPU-Sim uArch: core: 11, cta: 0 initialized @(33921,0)
GPGPU-Sim uArch: Shader 6 finished CTA #0 (33928,0), 1 CTAs running
GPGPU-Sim uArch: core:  6, cta: 0 initialized @(33929,0)
GPGPU-Sim uArch: Shader 7 finished CTA #1 (34000,0), 1 CTAs running
GPGPU-Sim uArch: Shader 9 finished CTA #1 (34000,0), 1 CTAs running
GPGPU-Sim uArch: core:  7, cta: 1 initialized @(34001,0)
GPGPU-Sim uArch: core:  9, cta: 1 initialized @(34001,0)
GPGPU-Sim uArch: Shader 8 finished CTA #1 (34008,0), 1 CTAs running
GPGPU-Sim uArch: core:  8, cta: 1 initialized @(34009,0)
GPGPU-Sim uArch: Shader 4 finished CTA #0 (34096,0), 1 CTAs running
GPGPU-Sim uArch: core:  4, cta: 0 initialized @(34097,0)
GPGPU-Sim uArch: Shader 5 finished CTA #1 (34098,0), 1 CTAs running
GPGPU-Sim uArch: core:  5, cta: 1 initialized @(34099,0)
GPGPU-Sim uArch: Shader 13 finished CTA #0 (34126,0), 1 CTAs running
GPGPU-Sim uArch: core: 13, cta: 0 initialized @(34127,0)
GPGPU-Sim uArch: Shader 1 finished CTA #1 (34158,0), 1 CTAs running
GPGPU-Sim uArch: core:  1, cta: 1 initialized @(34159,0)
GPGPU-Sim uArch: Shader 11 finished CTA #1 (34168,0), 1 CTAs running
GPGPU-Sim uArch: core: 11, cta: 1 initialized @(34169,0)
GPGPU-Sim uArch: Shader 5 finished CTA #0 (34197,0), 1 CTAs running
GPGPU-Sim uArch: core:  5, cta: 0 initialized @(34198,0)
GPGPU-Sim uArch: Shader 6 finished CTA #1 (34525,0), 1 CTAs running
GPGPU-Sim uArch: core:  6, cta: 1 initialized @(34526,0)
GPGPU-Sim uArch: Shader 10 finished CTA #0 (37139,0), 1 CTAs running
GPGPU-Sim uArch: core: 10, cta: 0 initialized @(37140,0)
GPGPU-Sim uArch: Shader 10 finished CTA #1 (37195,0), 1 CTAs running
GPGPU-Sim uArch: core: 10, cta: 1 initialized @(37196,0)
GPGPU-Sim uArch: Shader 0 finished CTA #0 (37673,0), 1 CTAs running
GPGPU-Sim uArch: core:  0, cta: 0 initialized @(37674,0)
GPGPU-Sim uArch: Shader 2 finished CTA #0 (37689,0), 1 CTAs running
GPGPU-Sim uArch: core:  2, cta: 0 initialized @(37690,0)
GPGPU-Sim uArch: Shader 2 finished CTA #1 (37722,0), 1 CTAs running
GPGPU-Sim uArch: core:  2, cta: 1 initialized @(37723,0)
GPGPU-Sim uArch: Shader 0 finished CTA #1 (37788,0), 1 CTAs running
GPGPU-Sim uArch: core:  0, cta: 1 initialized @(37789,0)
GPGPU-Sim uArch: Shader 12 finished CTA #1 (38626,0), 1 CTAs running
GPGPU-Sim uArch: core: 12, cta: 1 initialized @(38627,0)
GPGPU-Sim uArch: Shader 12 finished CTA #0 (38725,0), 1 CTAs running
GPGPU-Sim uArch: core: 12, cta: 0 initialized @(38726,0)
GPGPU-Sim uArch: Shader 3 finished CTA #1 (38755,0), 1 CTAs running
GPGPU-Sim uArch: core:  3, cta: 1 initialized @(38756,0)
GPGPU-Sim uArch: Shader 3 finished CTA #0 (39010,0), 1 CTAs running
GPGPU-Sim uArch: core:  3, cta: 0 initialized @(39011,0)
GPGPU-Sim uArch: Shader 9 finished CTA #0 (39250,0), 1 CTAs running
GPGPU-Sim uArch: core:  9, cta: 0 initialized @(39251,0)
GPGPU-Sim uArch: Shader 9 finished CTA #1 (39283,0), 1 CTAs running
GPGPU-Sim uArch: core:  9, cta: 1 initialized @(39284,0)
GPGPU-Sim uArch: Shader 7 finished CTA #0 (39469,0), 1 CTAs running
GPGPU-Sim uArch: core:  7, cta: 0 initialized @(39470,0)
GPGPU-Sim uArch: Shader 7 finished CTA #1 (39545,0), 1 CTAs running
GPGPU-Sim uArch: core:  7, cta: 1 initialized @(39546,0)
GPGPU-Sim uArch: Shader 1 finished CTA #0 (39867,0), 1 CTAs running
GPGPU-Sim uArch: core:  1, cta: 0 initialized @(39868,0)
GPGPU-Sim uArch: Shader 6 finished CTA #1 (40075,0), 1 CTAs running
GPGPU-Sim uArch: core:  6, cta: 1 initialized @(40076,0)
GPGPU-Sim uArch: Shader 4 finished CTA #1 (40089,0), 1 CTAs running
GPGPU-Sim uArch: core:  4, cta: 1 initialized @(40090,0)
GPGPU-Sim uArch: Shader 13 finished CTA #1 (40091,0), 1 CTAs running
GPGPU-Sim uArch: core: 13, cta: 1 initialized @(40092,0)
GPGPU-Sim uArch: Shader 8 finished CTA #0 (40093,0), 1 CTAs running
GPGPU-Sim uArch: core:  8, cta: 0 initialized @(40094,0)
GPGPU-Sim uArch: Shader 11 finished CTA #0 (40285,0), 1 CTAs running
GPGPU-Sim uArch: core: 11, cta: 0 initialized @(40286,0)
GPGPU-Sim uArch: Shader 8 finished CTA #1 (40367,0), 1 CTAs running
GPGPU-Sim uArch: core:  8, cta: 1 initialized @(40368,0)
GPGPU-Sim uArch: Shader 1 finished CTA #1 (40423,0), 1 CTAs running
GPGPU-Sim uArch: core:  1, cta: 1 initialized @(40424,0)
GPGPU-Sim uArch: Shader 11 finished CTA #1 (40452,0), 1 CTAs running
GPGPU-Sim uArch: core: 11, cta: 1 initialized @(40453,0)
GPGPU-Sim uArch: Shader 5 finished CTA #0 (40507,0), 1 CTAs running
GPGPU-Sim uArch: core:  5, cta: 0 initialized @(40508,0)
GPGPU-Sim uArch: Shader 6 finished CTA #0 (40552,0), 1 CTAs running
GPGPU-Sim uArch: core:  6, cta: 0 initialized @(40553,0)
GPGPU-Sim uArch: Shader 5 finished CTA #1 (40556,0), 1 CTAs running
GPGPU-Sim uArch: core:  5, cta: 1 initialized @(40557,0)
GPGPU-Sim uArch: Shader 13 finished CTA #0 (40562,0), 1 CTAs running
GPGPU-Sim uArch: core: 13, cta: 0 initialized @(40563,0)
GPGPU-Sim uArch: Shader 4 finished CTA #0 (40974,0), 1 CTAs running
GPGPU-Sim uArch: core:  4, cta: 0 initialized @(40975,0)
GPGPU-Sim uArch: Shader 10 finished CTA #0 (42169,0), 1 CTAs running
GPGPU-Sim uArch: core: 10, cta: 0 initialized @(42170,0)
GPGPU-Sim uArch: Shader 10 finished CTA #1 (42682,0), 1 CTAs running
GPGPU-Sim uArch: core: 10, cta: 1 initialized @(42683,0)
GPGPU-Sim uArch: Shader 2 finished CTA #0 (43193,0), 1 CTAs running
GPGPU-Sim uArch: core:  2, cta: 0 initialized @(43194,0)
GPGPU-Sim uArch: Shader 0 finished CTA #0 (43255,0), 1 CTAs running
GPGPU-Sim uArch: core:  0, cta: 0 initialized @(43256,0)
GPGPU-Sim uArch: Shader 2 finished CTA #1 (43269,0), 1 CTAs running
GPGPU-Sim uArch: core:  2, cta: 1 initialized @(43270,0)
GPGPU-Sim uArch: Shader 0 finished CTA #1 (43304,0), 1 CTAs running
GPGPU-Sim uArch: core:  0, cta: 1 initialized @(43305,0)
GPGPU-Sim uArch: Shader 12 finished CTA #0 (44506,0), 1 CTAs running
GPGPU-Sim uArch: core: 12, cta: 0 initialized @(44507,0)
GPGPU-Sim uArch: Shader 9 finished CTA #1 (44508,0), 1 CTAs running
GPGPU-Sim uArch: core:  9, cta: 1 initialized @(44509,0)
GPGPU-Sim uArch: Shader 12 finished CTA #1 (44582,0), 1 CTAs running
GPGPU-Sim uArch: core: 12, cta: 1 initialized @(44583,0)
GPGPU-Sim uArch: Shader 3 finished CTA #0 (44968,0), 1 CTAs running
GPGPU-Sim uArch: core:  3, cta: 0 initialized @(44969,0)
GPGPU-Sim uArch: Shader 3 finished CTA #1 (44985,0), 1 CTAs running
GPGPU-Sim uArch: core:  3, cta: 1 initialized @(44986,0)
GPGPU-Sim uArch: Shader 9 finished CTA #0 (45121,0), 1 CTAs running
GPGPU-Sim uArch: core:  9, cta: 0 initialized @(45122,0)
GPGPU-Sim uArch: Shader 1 finished CTA #1 (45225,0), 1 CTAs running
GPGPU-Sim uArch: core:  1, cta: 1 initialized @(45226,0)
GPGPU-Sim uArch: Shader 1 finished CTA #0 (45431,0), 1 CTAs running
GPGPU-Sim uArch: core:  1, cta: 0 initialized @(45432,0)
GPGPU-Sim uArch: Shader 7 finished CTA #0 (45485,0), 1 CTAs running
GPGPU-Sim uArch: core:  7, cta: 0 initialized @(45486,0)
GPGPU-Sim uArch: Shader 4 finished CTA #1 (45636,0), 1 CTAs running
GPGPU-Sim uArch: core:  4, cta: 1 initialized @(45637,0)
GPGPU-Sim uArch: Shader 7 finished CTA #1 (45666,0), 1 CTAs running
GPGPU-Sim uArch: core:  7, cta: 1 initialized @(45667,0)
GPGPU-Sim uArch: Shader 11 finished CTA #1 (45820,0), 1 CTAs running
GPGPU-Sim uArch: core: 11, cta: 1 initialized @(45821,0)
GPGPU-Sim uArch: Shader 8 finished CTA #0 (45864,0), 1 CTAs running
GPGPU-Sim uArch: core:  8, cta: 0 initialized @(45865,0)
GPGPU-Sim uArch: Shader 11 finished CTA #0 (45869,0), 1 CTAs running
GPGPU-Sim uArch: core: 11, cta: 0 initialized @(45870,0)
GPGPU-Sim uArch: Shader 8 finished CTA #1 (45956,0), 1 CTAs running
GPGPU-Sim uArch: core:  8, cta: 1 initialized @(45957,0)
GPGPU-Sim uArch: Shader 13 finished CTA #1 (46699,0), 1 CTAs running
GPGPU-Sim uArch: core: 13, cta: 1 initialized @(46700,0)
GPGPU-Sim uArch: Shader 5 finished CTA #0 (46751,0), 1 CTAs running
GPGPU-Sim uArch: core:  5, cta: 0 initialized @(46752,0)
GPGPU-Sim uArch: Shader 5 finished CTA #1 (46805,0), 1 CTAs running
GPGPU-Sim uArch: core:  5, cta: 1 initialized @(46806,0)
GPGPU-Sim uArch: Shader 13 finished CTA #0 (46884,0), 1 CTAs running
GPGPU-Sim uArch: core: 13, cta: 0 initialized @(46885,0)
GPGPU-Sim uArch: Shader 6 finished CTA #0 (46894,0), 1 CTAs running
GPGPU-Sim uArch: core:  6, cta: 0 initialized @(46895,0)
GPGPU-Sim uArch: Shader 4 finished CTA #0 (46932,0), 1 CTAs running
GPGPU-Sim uArch: core:  4, cta: 0 initialized @(46933,0)
GPGPU-Sim uArch: Shader 6 finished CTA #1 (46970,0), 1 CTAs running
GPGPU-Sim uArch: core:  6, cta: 1 initialized @(46971,0)
GPGPU-Sim uArch: Shader 10 finished CTA #0 (47700,0), 1 CTAs running
GPGPU-Sim uArch: core: 10, cta: 0 initialized @(47701,0)
GPGPU-Sim uArch: Shader 10 finished CTA #1 (47838,0), 1 CTAs running
GPGPU-Sim uArch: core: 10, cta: 1 initialized @(47839,0)
GPGPU-Sim uArch: Shader 0 finished CTA #1 (48721,0), 1 CTAs running
GPGPU-Sim uArch: core:  0, cta: 1 initialized @(48722,0)
GPGPU-Sim uArch: Shader 2 finished CTA #1 (48759,0), 1 CTAs running
GPGPU-Sim uArch: core:  2, cta: 1 initialized @(48760,0)
GPGPU-Sim uArch: Shader 0 finished CTA #0 (48859,0), 1 CTAs running
GPGPU-Sim uArch: core:  0, cta: 0 initialized @(48860,0)
GPGPU-Sim uArch: Shader 2 finished CTA #0 (48867,0), 1 CTAs running
GPGPU-Sim uArch: core:  2, cta: 0 initialized @(48868,0)
GPGPU-Sim uArch: Shader 9 finished CTA #1 (50258,0), 1 CTAs running
GPGPU-Sim uArch: core:  9, cta: 1 initialized @(50259,0)
GPGPU-Sim uArch: Shader 9 finished CTA #0 (50507,0), 1 CTAs running
GPGPU-Sim uArch: core:  9, cta: 0 initialized @(50508,0)
GPGPU-Sim uArch: Shader 3 finished CTA #1 (50585,0), 1 CTAs running
GPGPU-Sim uArch: core:  3, cta: 1 initialized @(50586,0)
GPGPU-Sim uArch: Shader 12 finished CTA #1 (50595,0), 1 CTAs running
GPGPU-Sim uArch: core: 12, cta: 1 initialized @(50596,0)
GPGPU-Sim uArch: Shader 12 finished CTA #0 (50612,0), 1 CTAs running
GPGPU-Sim uArch: core: 12, cta: 0 initialized @(50613,0)
GPGPU-Sim uArch: Shader 3 finished CTA #0 (50787,0), 1 CTAs running
GPGPU-Sim uArch: core:  3, cta: 0 initialized @(50788,0)
GPGPU-Sim uArch: Shader 4 finished CTA #1 (50805,0), 1 CTAs running
GPGPU-Sim uArch: core:  4, cta: 1 initialized @(50806,0)
GPGPU-Sim uArch: Shader 11 finished CTA #0 (51345,0), 1 CTAs running
GPGPU-Sim uArch: core: 11, cta: 0 initialized @(51346,0)
GPGPU-Sim uArch: Shader 1 finished CTA #1 (51385,0), 1 CTAs running
GPGPU-Sim uArch: core:  1, cta: 1 initialized @(51386,0)
GPGPU-Sim uArch: Shader 7 finished CTA #1 (51450,0), 1 CTAs running
GPGPU-Sim uArch: core:  7, cta: 1 initialized @(51451,0)
GPGPU-Sim uArch: Shader 1 finished CTA #0 (51516,0), 1 CTAs running
GPGPU-Sim uArch: core:  1, cta: 0 initialized @(51517,0)
GPGPU-Sim uArch: Shader 7 finished CTA #0 (51526,0), 1 CTAs running
GPGPU-Sim uArch: core:  7, cta: 0 initialized @(51527,0)
GPGPU-Sim uArch: Shader 11 finished CTA #1 (51528,0), 1 CTAs running
GPGPU-Sim uArch: core: 11, cta: 1 initialized @(51529,0)
GPGPU-Sim uArch: Shader 8 finished CTA #1 (51610,0), 1 CTAs running
GPGPU-Sim uArch: core:  8, cta: 1 initialized @(51611,0)
GPGPU-Sim uArch: Shader 8 finished CTA #0 (51769,0), 1 CTAs running
GPGPU-Sim uArch: core:  8, cta: 0 initialized @(51770,0)
GPGPU-Sim uArch: Shader 13 finished CTA #1 (52241,0), 1 CTAs running
GPGPU-Sim uArch: core: 13, cta: 1 initialized @(52242,0)
GPGPU-Sim uArch: Shader 13 finished CTA #0 (52356,0), 1 CTAs running
GPGPU-Sim uArch: core: 13, cta: 0 initialized @(52357,0)
GPGPU-Sim uArch: Shader 5 finished CTA #0 (52452,0), 1 CTAs running
GPGPU-Sim uArch: core:  5, cta: 0 initialized @(52453,0)
GPGPU-Sim uArch: Shader 5 finished CTA #1 (52508,0), 1 CTAs running
GPGPU-Sim uArch: core:  5, cta: 1 initialized @(52509,0)
GPGPU-Sim uArch: Shader 6 finished CTA #0 (52567,0), 1 CTAs running
GPGPU-Sim uArch: core:  6, cta: 0 initialized @(52568,0)
GPGPU-Sim uArch: Shader 6 finished CTA #1 (52624,0), 1 CTAs running
GPGPU-Sim uArch: core:  6, cta: 1 initialized @(52625,0)
GPGPU-Sim uArch: Shader 4 finished CTA #0 (53202,0), 1 CTAs running
GPGPU-Sim uArch: core:  4, cta: 0 initialized @(53203,0)
GPGPU-Sim uArch: Shader 10 finished CTA #1 (54370,0), 1 CTAs running
GPGPU-Sim uArch: core: 10, cta: 1 initialized @(54371,0)
GPGPU-Sim uArch: Shader 10 finished CTA #0 (54403,0), 1 CTAs running
GPGPU-Sim uArch: core: 10, cta: 0 initialized @(54404,0)
GPGPU-Sim uArch: Shader 0 finished CTA #0 (54473,0), 1 CTAs running
GPGPU-Sim uArch: core:  0, cta: 0 initialized @(54474,0)
GPGPU-Sim uArch: Shader 2 finished CTA #0 (54485,0), 1 CTAs running
GPGPU-Sim uArch: core:  2, cta: 0 initialized @(54486,0)
GPGPU-Sim uArch: Shader 0 finished CTA #1 (54588,0), 1 CTAs running
GPGPU-Sim uArch: core:  0, cta: 1 initialized @(54589,0)
GPGPU-Sim uArch: Shader 2 finished CTA #1 (54681,0), 1 CTAs running
GPGPU-Sim uArch: core:  2, cta: 1 initialized @(54682,0)
GPGPU-Sim uArch: Shader 12 finished CTA #0 (56026,0), 1 CTAs running
GPGPU-Sim uArch: core: 12, cta: 0 initialized @(56027,0)
GPGPU-Sim uArch: Shader 9 finished CTA #1 (56033,0), 1 CTAs running
GPGPU-Sim uArch: core:  9, cta: 1 initialized @(56034,0)
GPGPU-Sim uArch: Shader 9 finished CTA #0 (56195,0), 1 CTAs running
GPGPU-Sim uArch: core:  9, cta: 0 initialized @(56196,0)
GPGPU-Sim uArch: Shader 3 finished CTA #1 (56234,0), 1 CTAs running
GPGPU-Sim uArch: core:  3, cta: 1 initialized @(56235,0)
GPGPU-Sim uArch: Shader 3 finished CTA #0 (56420,0), 1 CTAs running
GPGPU-Sim uArch: core:  3, cta: 0 initialized @(56421,0)
GPGPU-Sim uArch: Shader 12 finished CTA #1 (56672,0), 1 CTAs running
GPGPU-Sim uArch: core: 12, cta: 1 initialized @(56673,0)
GPGPU-Sim uArch: Shader 4 finished CTA #1 (56954,0), 1 CTAs running
GPGPU-Sim uArch: core:  4, cta: 1 initialized @(56955,0)
GPGPU-Sim uArch: Shader 1 finished CTA #1 (57059,0), 1 CTAs running
GPGPU-Sim uArch: core:  1, cta: 1 initialized @(57060,0)
GPGPU-Sim uArch: Shader 11 finished CTA #1 (57315,0), 1 CTAs running
GPGPU-Sim uArch: core: 11, cta: 1 initialized @(57316,0)
GPGPU-Sim uArch: Shader 1 finished CTA #0 (57508,0), 1 CTAs running
GPGPU-Sim uArch: core:  1, cta: 0 initialized @(57509,0)
GPGPU-Sim uArch: Shader 7 finished CTA #0 (57527,0), 1 CTAs running
GPGPU-Sim uArch: core:  7, cta: 0 initialized @(57528,0)
GPGPU-Sim uArch: Shader 7 finished CTA #1 (57603,0), 1 CTAs running
GPGPU-Sim uArch: core:  7, cta: 1 initialized @(57604,0)
GPGPU-Sim uArch: Shader 11 finished CTA #0 (57605,0), 1 CTAs running
GPGPU-Sim uArch: core: 11, cta: 0 initialized @(57606,0)
GPGPU-Sim uArch: Shader 8 finished CTA #0 (57677,0), 1 CTAs running
GPGPU-Sim uArch: core:  8, cta: 0 initialized @(57678,0)
GPGPU-Sim uArch: Shader 8 finished CTA #1 (57943,0), 1 CTAs running
GPGPU-Sim uArch: core:  8, cta: 1 initialized @(57944,0)
GPGPU-Sim uArch: Shader 13 finished CTA #0 (58091,0), 1 CTAs running
GPGPU-Sim uArch: core: 13, cta: 0 initialized @(58092,0)
GPGPU-Sim uArch: Shader 13 finished CTA #1 (58108,0), 1 CTAs running
GPGPU-Sim uArch: core: 13, cta: 1 initialized @(58109,0)
GPGPU-Sim uArch: Shader 6 finished CTA #0 (58233,0), 1 CTAs running
GPGPU-Sim uArch: core:  6, cta: 0 initialized @(58234,0)
GPGPU-Sim uArch: Shader 5 finished CTA #1 (58274,0), 1 CTAs running
GPGPU-Sim uArch: core:  5, cta: 1 initialized @(58275,0)
GPGPU-Sim uArch: Shader 6 finished CTA #1 (58316,0), 1 CTAs running
GPGPU-Sim uArch: core:  6, cta: 1 initialized @(58317,0)
GPGPU-Sim uArch: Shader 5 finished CTA #0 (58455,0), 1 CTAs running
GPGPU-Sim uArch: core:  5, cta: 0 initialized @(58456,0)
GPGPU-Sim uArch: Shader 4 finished CTA #0 (58813,0), 1 CTAs running
GPGPU-Sim uArch: core:  4, cta: 0 initialized @(58814,0)
GPGPU-Sim uArch: Shader 10 finished CTA #0 (60105,0), 1 CTAs running
GPGPU-Sim uArch: core: 10, cta: 0 initialized @(60106,0)
GPGPU-Sim uArch: Shader 10 finished CTA #1 (60122,0), 1 CTAs running
GPGPU-Sim uArch: core: 10, cta: 1 initialized @(60123,0)
GPGPU-Sim uArch: Shader 2 finished CTA #0 (60223,0), 1 CTAs running
GPGPU-Sim uArch: core:  2, cta: 0 initialized @(60224,0)
GPGPU-Sim uArch: Shader 0 finished CTA #0 (60509,0), 1 CTAs running
GPGPU-Sim uArch: core:  0, cta: 0 initialized @(60510,0)
GPGPU-Sim uArch: Shader 0 finished CTA #1 (61200,0), 1 CTAs running
GPGPU-Sim uArch: core:  0, cta: 1 initialized @(61201,0)
GPGPU-Sim uArch: Shader 2 finished CTA #1 (61215,0), 1 CTAs running
GPGPU-Sim uArch: core:  2, cta: 1 initialized @(61216,0)
GPGPU-Sim uArch: Shader 12 finished CTA #1 (61954,0), 1 CTAs running
GPGPU-Sim uArch: core: 12, cta: 1 initialized @(61955,0)
GPGPU-Sim uArch: Shader 3 finished CTA #0 (61958,0), 1 CTAs running
GPGPU-Sim uArch: core:  3, cta: 0 initialized @(61959,0)
GPGPU-Sim uArch: Shader 12 finished CTA #0 (61971,0), 1 CTAs running
GPGPU-Sim uArch: core: 12, cta: 0 initialized @(61972,0)
GPGPU-Sim uArch: Shader 3 finished CTA #1 (62015,0), 1 CTAs running
GPGPU-Sim uArch: core:  3, cta: 1 initialized @(62016,0)
GPGPU-Sim uArch: Shader 9 finished CTA #0 (62056,0), 1 CTAs running
GPGPU-Sim uArch: core:  9, cta: 0 initialized @(62057,0)
GPGPU-Sim uArch: Shader 9 finished CTA #1 (62112,0), 1 CTAs running
GPGPU-Sim uArch: core:  9, cta: 1 initialized @(62113,0)
GPGPU-Sim uArch: Shader 1 finished CTA #1 (62568,0), 1 CTAs running
GPGPU-Sim uArch: core:  1, cta: 1 initialized @(62569,0)
GPGPU-Sim uArch: Shader 1 finished CTA #0 (62601,0), 1 CTAs running
GPGPU-Sim uArch: core:  1, cta: 0 initialized @(62602,0)
GPGPU-Sim uArch: Shader 4 finished CTA #1 (63185,0), 1 CTAs running
GPGPU-Sim uArch: core:  4, cta: 1 initialized @(63186,0)
GPGPU-Sim uArch: Shader 7 finished CTA #1 (63329,0), 1 CTAs running
GPGPU-Sim uArch: core:  7, cta: 1 initialized @(63330,0)
GPGPU-Sim uArch: Shader 11 finished CTA #0 (63380,0), 1 CTAs running
GPGPU-Sim uArch: core: 11, cta: 0 initialized @(63381,0)
GPGPU-Sim uArch: Shader 11 finished CTA #1 (63413,0), 1 CTAs running
GPGPU-Sim uArch: core: 11, cta: 1 initialized @(63414,0)
GPGPU-Sim uArch: Shader 7 finished CTA #0 (63437,0), 1 CTAs running
GPGPU-Sim uArch: core:  7, cta: 0 initialized @(63438,0)
GPGPU-Sim uArch: Shader 6 finished CTA #1 (63939,0), 1 CTAs running
GPGPU-Sim uArch: core:  6, cta: 1 initialized @(63940,0)
GPGPU-Sim uArch: Shader 5 finished CTA #1 (63997,0), 1 CTAs running
GPGPU-Sim uArch: core:  5, cta: 1 initialized @(63998,0)
GPGPU-Sim uArch: Shader 13 finished CTA #1 (63999,0), 1 CTAs running
GPGPU-Sim uArch: core: 13, cta: 1 initialized @(64000,0)
GPGPU-Sim uArch: Shader 13 finished CTA #0 (64032,0), 1 CTAs running
GPGPU-Sim uArch: core: 13, cta: 0 initialized @(64033,0)
GPGPU-Sim uArch: Shader 8 finished CTA #1 (64116,0), 1 CTAs running
GPGPU-Sim uArch: core:  8, cta: 1 initialized @(64117,0)
GPGPU-Sim uArch: Shader 6 finished CTA #0 (64161,0), 1 CTAs running
GPGPU-Sim uArch: core:  6, cta: 0 initialized @(64162,0)
GPGPU-Sim uArch: Shader 5 finished CTA #0 (64206,0), 1 CTAs running
GPGPU-Sim uArch: core:  5, cta: 0 initialized @(64207,0)
GPGPU-Sim uArch: Shader 8 finished CTA #0 (64285,0), 1 CTAs running
GPGPU-Sim uArch: core:  8, cta: 0 initialized @(64286,0)
GPGPU-Sim uArch: Shader 4 finished CTA #0 (64911,0), 1 CTAs running
GPGPU-Sim uArch: core:  4, cta: 0 initialized @(64912,0)
GPGPU-Sim uArch: Shader 2 finished CTA #0 (65908,0), 1 CTAs running
GPGPU-Sim uArch: core:  2, cta: 0 initialized @(65909,0)
GPGPU-Sim uArch: Shader 10 finished CTA #1 (66077,0), 1 CTAs running
GPGPU-Sim uArch: core: 10, cta: 1 initialized @(66078,0)
GPGPU-Sim uArch: Shader 0 finished CTA #1 (66104,0), 1 CTAs running
GPGPU-Sim uArch: core:  0, cta: 1 initialized @(66105,0)
GPGPU-Sim uArch: Shader 10 finished CTA #0 (66126,0), 1 CTAs running
GPGPU-Sim uArch: core: 10, cta: 0 initialized @(66127,0)
GPGPU-Sim uArch: Shader 0 finished CTA #0 (66235,0), 1 CTAs running
GPGPU-Sim uArch: core:  0, cta: 0 initialized @(66236,0)
GPGPU-Sim uArch: Shader 2 finished CTA #1 (67230,0), 1 CTAs running
GPGPU-Sim uArch: core:  2, cta: 1 initialized @(67231,0)
GPGPU-Sim uArch: Shader 3 finished CTA #0 (68272,0), 1 CTAs running
GPGPU-Sim uArch: core:  3, cta: 0 initialized @(68273,0)
GPGPU-Sim uArch: Shader 9 finished CTA #1 (68455,0), 1 CTAs running
GPGPU-Sim uArch: core:  9, cta: 1 initialized @(68456,0)
GPGPU-Sim uArch: Shader 3 finished CTA #1 (68545,0), 1 CTAs running
GPGPU-Sim uArch: core:  3, cta: 1 initialized @(68546,0)
GPGPU-Sim uArch: Shader 9 finished CTA #0 (68547,0), 1 CTAs running
GPGPU-Sim uArch: core:  9, cta: 0 initialized @(68548,0)
GPGPU-Sim uArch: Shader 12 finished CTA #1 (68684,0), 1 CTAs running
GPGPU-Sim uArch: core: 12, cta: 1 initialized @(68685,0)
GPGPU-Sim uArch: Shader 1 finished CTA #1 (68702,0), 1 CTAs running
GPGPU-Sim uArch: core:  1, cta: 1 initialized @(68703,0)
GPGPU-Sim uArch: Shader 1 finished CTA #0 (68719,0), 1 CTAs running
GPGPU-Sim uArch: core:  1, cta: 0 initialized @(68720,0)
GPGPU-Sim uArch: Shader 12 finished CTA #0 (68799,0), 1 CTAs running
GPGPU-Sim uArch: core: 12, cta: 0 initialized @(68800,0)
GPGPU-Sim uArch: Shader 11 finished CTA #1 (69158,0), 1 CTAs running
GPGPU-Sim uArch: core: 11, cta: 1 initialized @(69159,0)
GPGPU-Sim uArch: Shader 4 finished CTA #1 (69224,0), 1 CTAs running
GPGPU-Sim uArch: core:  4, cta: 1 initialized @(69225,0)
GPGPU-Sim uArch: Shader 7 finished CTA #0 (69226,0), 1 CTAs running
GPGPU-Sim uArch: core:  7, cta: 0 initialized @(69227,0)
GPGPU-Sim uArch: Shader 11 finished CTA #0 (69234,0), 1 CTAs running
GPGPU-Sim uArch: core: 11, cta: 0 initialized @(69235,0)
GPGPU-Sim uArch: Shader 7 finished CTA #1 (69243,0), 1 CTAs running
GPGPU-Sim uArch: core:  7, cta: 1 initialized @(69244,0)
GPGPU-Sim uArch: Shader 13 finished CTA #1 (69517,0), 1 CTAs running
GPGPU-Sim uArch: core: 13, cta: 1 initialized @(69518,0)
GPGPU-Sim uArch: Shader 8 finished CTA #1 (69596,0), 1 CTAs running
GPGPU-Sim uArch: core:  8, cta: 1 initialized @(69597,0)
GPGPU-Sim uArch: Shader 13 finished CTA #0 (69600,0), 1 CTAs running
GPGPU-Sim uArch: core: 13, cta: 0 initialized @(69601,0)
GPGPU-Sim uArch: Shader 5 finished CTA #1 (70102,0), 1 CTAs running
GPGPU-Sim uArch: core:  5, cta: 1 initialized @(70103,0)
GPGPU-Sim uArch: Shader 5 finished CTA #0 (70135,0), 1 CTAs running
GPGPU-Sim uArch: core:  5, cta: 0 initialized @(70136,0)
GPGPU-Sim uArch: Shader 6 finished CTA #1 (70220,0), 1 CTAs running
GPGPU-Sim uArch: core:  6, cta: 1 initialized @(70221,0)
GPGPU-Sim uArch: Shader 6 finished CTA #0 (70269,0), 1 CTAs running
GPGPU-Sim uArch: core:  6, cta: 0 initialized @(70270,0)
GPGPU-Sim uArch: Shader 4 finished CTA #0 (70300,0), 1 CTAs running
GPGPU-Sim uArch: core:  4, cta: 0 initialized @(70301,0)
GPGPU-Sim uArch: Shader 8 finished CTA #0 (70601,0), 1 CTAs running
GPGPU-Sim uArch: core:  8, cta: 0 initialized @(70602,0)
GPGPU-Sim uArch: Shader 2 finished CTA #0 (71027,0), 1 CTAs running
GPGPU-Sim uArch: core:  2, cta: 0 initialized @(71028,0)
GPGPU-Sim uArch: Shader 0 finished CTA #0 (72049,0), 1 CTAs running
GPGPU-Sim uArch: core:  0, cta: 0 initialized @(72050,0)
GPGPU-Sim uArch: Shader 0 finished CTA #1 (72082,0), 1 CTAs running
GPGPU-Sim uArch: core:  0, cta: 1 initialized @(72083,0)
GPGPU-Sim uArch: Shader 10 finished CTA #0 (72142,0), 1 CTAs running
GPGPU-Sim uArch: core: 10, cta: 0 initialized @(72143,0)
GPGPU-Sim uArch: Shader 10 finished CTA #1 (72159,0), 1 CTAs running
GPGPU-Sim uArch: core: 10, cta: 1 initialized @(72160,0)
GPGPU-Sim uArch: Shader 2 finished CTA #1 (72988,0), 1 CTAs running
GPGPU-Sim uArch: core:  2, cta: 1 initialized @(72989,0)
GPGPU-Sim uArch: Shader 3 finished CTA #0 (73614,0), 1 CTAs running
GPGPU-Sim uArch: core:  3, cta: 0 initialized @(73615,0)
GPGPU-Sim uArch: Shader 3 finished CTA #1 (73670,0), 1 CTAs running
GPGPU-Sim uArch: core:  3, cta: 1 initialized @(73671,0)
GPGPU-Sim uArch: Shader 9 finished CTA #0 (73959,0), 1 CTAs running
GPGPU-Sim uArch: core:  9, cta: 0 initialized @(73960,0)
GPGPU-Sim uArch: Shader 9 finished CTA #1 (73976,0), 1 CTAs running
GPGPU-Sim uArch: core:  9, cta: 1 initialized @(73977,0)
GPGPU-Sim uArch: Shader 1 finished CTA #1 (74899,0), 1 CTAs running
GPGPU-Sim uArch: core:  1, cta: 1 initialized @(74900,0)
GPGPU-Sim uArch: Shader 7 finished CTA #0 (74911,0), 1 CTAs running
GPGPU-Sim uArch: core:  7, cta: 0 initialized @(74912,0)
GPGPU-Sim uArch: Shader 7 finished CTA #1 (74960,0), 1 CTAs running
GPGPU-Sim uArch: core:  7, cta: 1 initialized @(74961,0)
GPGPU-Sim uArch: Shader 4 finished CTA #1 (75007,0), 1 CTAs running
GPGPU-Sim uArch: core:  4, cta: 1 initialized @(75008,0)
GPGPU-Sim uArch: Shader 13 finished CTA #0 (75027,0), 1 CTAs running
GPGPU-Sim uArch: core: 13, cta: 0 initialized @(75028,0)
GPGPU-Sim uArch: Shader 13 finished CTA #1 (75060,0), 1 CTAs running
GPGPU-Sim uArch: core: 13, cta: 1 initialized @(75061,0)
GPGPU-Sim uArch: Shader 11 finished CTA #0 (75087,0), 1 CTAs running
GPGPU-Sim uArch: core: 11, cta: 0 initialized @(75088,0)
GPGPU-Sim uArch: Shader 12 finished CTA #1 (75182,0), 1 CTAs running
GPGPU-Sim uArch: core: 12, cta: 1 initialized @(75183,0)
GPGPU-Sim uArch: Shader 11 finished CTA #1 (75195,0), 1 CTAs running
GPGPU-Sim uArch: core: 11, cta: 1 initialized @(75196,0)
GPGPU-Sim uArch: Shader 12 finished CTA #0 (75199,0), 1 CTAs running
GPGPU-Sim uArch: core: 12, cta: 0 initialized @(75200,0)
GPGPU-Sim uArch: Shader 8 finished CTA #0 (75270,0), 1 CTAs running
GPGPU-Sim uArch: core:  8, cta: 0 initialized @(75271,0)
GPGPU-Sim uArch: Shader 8 finished CTA #1 (75287,0), 1 CTAs running
GPGPU-Sim uArch: core:  8, cta: 1 initialized @(75288,0)
GPGPU-Sim uArch: Shader 4 finished CTA #0 (75478,0), 1 CTAs running
GPGPU-Sim uArch: core:  4, cta: 0 initialized @(75479,0)
GPGPU-Sim uArch: Shader 1 finished CTA #0 (75484,0), 1 CTAs running
GPGPU-Sim uArch: core:  1, cta: 0 initialized @(75485,0)
GPGPU-Sim uArch: Shader 5 finished CTA #1 (75951,0), 1 CTAs running
GPGPU-Sim uArch: core:  5, cta: 1 initialized @(75952,0)
GPGPU-Sim uArch: Shader 5 finished CTA #0 (76050,0), 1 CTAs running
GPGPU-Sim uArch: core:  5, cta: 0 initialized @(76051,0)
GPGPU-Sim uArch: Shader 6 finished CTA #0 (76215,0), 1 CTAs running
GPGPU-Sim uArch: core:  6, cta: 0 initialized @(76216,0)
GPGPU-Sim uArch: Shader 6 finished CTA #1 (76370,0), 1 CTAs running
GPGPU-Sim uArch: core:  6, cta: 1 initialized @(76371,0)
GPGPU-Sim uArch: Shader 2 finished CTA #0 (77687,0), 1 CTAs running
GPGPU-Sim uArch: core:  2, cta: 0 initialized @(77688,0)
GPGPU-Sim uArch: Shader 10 finished CTA #1 (77701,0), 1 CTAs running
GPGPU-Sim uArch: core: 10, cta: 1 initialized @(77702,0)
GPGPU-Sim uArch: Shader 10 finished CTA #0 (77825,0), 1 CTAs running
GPGPU-Sim uArch: core: 10, cta: 0 initialized @(77826,0)
GPGPU-Sim uArch: Shader 0 finished CTA #1 (77979,0), 1 CTAs running
GPGPU-Sim uArch: core:  0, cta: 1 initialized @(77980,0)
GPGPU-Sim uArch: Shader 0 finished CTA #0 (78062,0), 1 CTAs running
GPGPU-Sim uArch: core:  0, cta: 0 initialized @(78063,0)
GPGPU-Sim uArch: Shader 2 finished CTA #1 (78636,0), 1 CTAs running
GPGPU-Sim uArch: core:  2, cta: 1 initialized @(78637,0)
GPGPU-Sim uArch: Shader 3 finished CTA #1 (79299,0), 1 CTAs running
GPGPU-Sim uArch: core:  3, cta: 1 initialized @(79300,0)
GPGPU-Sim uArch: Shader 3 finished CTA #0 (79518,0), 1 CTAs running
GPGPU-Sim uArch: core:  3, cta: 0 initialized @(79519,0)
GPGPU-Sim uArch: Shader 9 finished CTA #1 (79629,0), 1 CTAs running
GPGPU-Sim uArch: core:  9, cta: 1 initialized @(79630,0)
GPGPU-Sim uArch: Shader 9 finished CTA #0 (79662,0), 1 CTAs running
GPGPU-Sim uArch: core:  9, cta: 0 initialized @(79663,0)
GPGPU-Sim uArch: Shader 1 finished CTA #1 (80651,0), 1 CTAs running
GPGPU-Sim uArch: core:  1, cta: 1 initialized @(80652,0)
GPGPU-Sim uArch: Shader 7 finished CTA #0 (80738,0), 1 CTAs running
GPGPU-Sim uArch: core:  7, cta: 0 initialized @(80739,0)
GPGPU-Sim uArch: Shader 13 finished CTA #0 (80752,0), 1 CTAs running
GPGPU-Sim uArch: core: 13, cta: 0 initialized @(80753,0)
GPGPU-Sim uArch: Shader 7 finished CTA #1 (80837,0), 1 CTAs running
GPGPU-Sim uArch: core:  7, cta: 1 initialized @(80838,0)
GPGPU-Sim uArch: Shader 12 finished CTA #0 (80880,0), 1 CTAs running
GPGPU-Sim uArch: core: 12, cta: 0 initialized @(80881,0)
GPGPU-Sim uArch: Shader 4 finished CTA #1 (80905,0), 1 CTAs running
GPGPU-Sim uArch: core:  4, cta: 1 initialized @(80906,0)
GPGPU-Sim uArch: Shader 13 finished CTA #1 (80918,0), 1 CTAs running
GPGPU-Sim uArch: core: 13, cta: 1 initialized @(80919,0)
GPGPU-Sim uArch: Shader 11 finished CTA #0 (80919,0), 1 CTAs running
GPGPU-Sim uArch: core: 11, cta: 0 initialized @(80920,0)
GPGPU-Sim uArch: Shader 12 finished CTA #1 (80956,0), 1 CTAs running
GPGPU-Sim uArch: core: 12, cta: 1 initialized @(80957,0)
GPGPU-Sim uArch: Shader 11 finished CTA #1 (80968,0), 1 CTAs running
GPGPU-Sim uArch: core: 11, cta: 1 initialized @(80969,0)
GPGPU-Sim uArch: Shader 8 finished CTA #1 (81142,0), 1 CTAs running
GPGPU-Sim uArch: core:  8, cta: 1 initialized @(81143,0)
GPGPU-Sim uArch: Shader 8 finished CTA #0 (81159,0), 1 CTAs running
GPGPU-Sim uArch: core:  8, cta: 0 initialized @(81160,0)
GPGPU-Sim uArch: Shader 6 finished CTA #1 (81525,0), 1 CTAs running
GPGPU-Sim uArch: core:  6, cta: 1 initialized @(81526,0)
GPGPU-Sim uArch: Shader 5 finished CTA #0 (81797,0), 1 CTAs running
GPGPU-Sim uArch: core:  5, cta: 0 initialized @(81798,0)
GPGPU-Sim uArch: Shader 6 finished CTA #0 (81801,0), 1 CTAs running
GPGPU-Sim uArch: core:  6, cta: 0 initialized @(81802,0)
GPGPU-Sim uArch: Shader 1 finished CTA #0 (81803,0), 1 CTAs running
GPGPU-Sim uArch: core:  1, cta: 0 initialized @(81804,0)
GPGPU-Sim uArch: Shader 4 finished CTA #0 (81807,0), 1 CTAs running
GPGPU-Sim uArch: core:  4, cta: 0 initialized @(81808,0)
GPGPU-Sim uArch: Shader 5 finished CTA #1 (81946,0), 1 CTAs running
GPGPU-Sim uArch: core:  5, cta: 1 initialized @(81947,0)
GPGPU-Sim uArch: Shader 10 finished CTA #0 (83646,0), 1 CTAs running
GPGPU-Sim uArch: core: 10, cta: 0 initialized @(83647,0)
GPGPU-Sim uArch: Shader 10 finished CTA #1 (83738,0), 1 CTAs running
GPGPU-Sim uArch: core: 10, cta: 1 initialized @(83739,0)
GPGPU-Sim uArch: Shader 2 finished CTA #1 (84184,0), 1 CTAs running
GPGPU-Sim uArch: core:  2, cta: 1 initialized @(84185,0)
GPGPU-Sim uArch: Shader 2 finished CTA #0 (84388,0), 1 CTAs running
GPGPU-Sim uArch: core:  2, cta: 0 initialized @(84389,0)
GPGPU-Sim uArch: Shader 0 finished CTA #1 (84554,0), 1 CTAs running
GPGPU-Sim uArch: core:  0, cta: 1 initialized @(84555,0)
GPGPU-Sim uArch: Shader 0 finished CTA #0 (84611,0), 1 CTAs running
GPGPU-Sim uArch: core:  0, cta: 0 initialized @(84612,0)
GPGPU-Sim uArch: Shader 3 finished CTA #1 (84764,0), 1 CTAs running
GPGPU-Sim uArch: core:  3, cta: 1 initialized @(84765,0)
GPGPU-Sim uArch: Shader 3 finished CTA #0 (84781,0), 1 CTAs running
GPGPU-Sim uArch: core:  3, cta: 0 initialized @(84782,0)
GPGPU-Sim uArch: Shader 9 finished CTA #1 (85281,0), 1 CTAs running
GPGPU-Sim uArch: core:  9, cta: 1 initialized @(85282,0)
GPGPU-Sim uArch: Shader 9 finished CTA #0 (85450,0), 1 CTAs running
GPGPU-Sim uArch: core:  9, cta: 0 initialized @(85451,0)
GPGPU-Sim uArch: Shader 7 finished CTA #0 (86379,0), 1 CTAs running
GPGPU-Sim uArch: core:  7, cta: 0 initialized @(86380,0)
GPGPU-Sim uArch: Shader 11 finished CTA #1 (86394,0), 1 CTAs running
GPGPU-Sim uArch: core: 11, cta: 1 initialized @(86395,0)
GPGPU-Sim uArch: Shader 7 finished CTA #1 (86396,0), 1 CTAs running
GPGPU-Sim uArch: core:  7, cta: 1 initialized @(86397,0)
GPGPU-Sim uArch: Shader 12 finished CTA #0 (86448,0), 1 CTAs running
GPGPU-Sim uArch: core: 12, cta: 0 initialized @(86449,0)
GPGPU-Sim uArch: Shader 12 finished CTA #1 (86465,0), 1 CTAs running
GPGPU-Sim uArch: core: 12, cta: 1 initialized @(86466,0)
GPGPU-Sim uArch: Shader 11 finished CTA #0 (86470,0), 1 CTAs running
GPGPU-Sim uArch: core: 11, cta: 0 initialized @(86471,0)
GPGPU-Sim uArch: Shader 4 finished CTA #1 (86475,0), 1 CTAs running
GPGPU-Sim uArch: core:  4, cta: 1 initialized @(86476,0)
GPGPU-Sim uArch: Shader 13 finished CTA #1 (86631,0), 1 CTAs running
GPGPU-Sim uArch: core: 13, cta: 1 initialized @(86632,0)
GPGPU-Sim uArch: Shader 13 finished CTA #0 (86687,0), 1 CTAs running
GPGPU-Sim uArch: core: 13, cta: 0 initialized @(86688,0)
GPGPU-Sim uArch: Shader 1 finished CTA #1 (87156,0), 1 CTAs running
GPGPU-Sim uArch: core:  1, cta: 1 initialized @(87157,0)
GPGPU-Sim uArch: Shader 6 finished CTA #0 (87340,0), 1 CTAs running
GPGPU-Sim uArch: core:  6, cta: 0 initialized @(87341,0)
GPGPU-Sim uArch: Shader 5 finished CTA #0 (87435,0), 1 CTAs running
GPGPU-Sim uArch: core:  5, cta: 0 initialized @(87436,0)
GPGPU-Sim uArch: Shader 6 finished CTA #1 (87497,0), 1 CTAs running
GPGPU-Sim uArch: core:  6, cta: 1 initialized @(87498,0)
GPGPU-Sim uArch: Shader 8 finished CTA #1 (87531,0), 1 CTAs running
GPGPU-Sim uArch: core:  8, cta: 1 initialized @(87532,0)
GPGPU-Sim uArch: Shader 4 finished CTA #0 (87558,0), 1 CTAs running
GPGPU-Sim uArch: core:  4, cta: 0 initialized @(87559,0)
GPGPU-Sim uArch: Shader 5 finished CTA #1 (87566,0), 1 CTAs running
GPGPU-Sim uArch: core:  5, cta: 1 initialized @(87567,0)
GPGPU-Sim uArch: Shader 1 finished CTA #0 (87603,0), 1 CTAs running
GPGPU-Sim uArch: core:  1, cta: 0 initialized @(87604,0)
GPGPU-Sim uArch: Shader 8 finished CTA #0 (87762,0), 1 CTAs running
GPGPU-Sim uArch: core:  8, cta: 0 initialized @(87763,0)
GPGPU-Sim uArch: Shader 10 finished CTA #1 (89373,0), 1 CTAs running
GPGPU-Sim uArch: core: 10, cta: 1 initialized @(89374,0)
GPGPU-Sim uArch: Shader 10 finished CTA #0 (89481,0), 1 CTAs running
GPGPU-Sim uArch: core: 10, cta: 0 initialized @(89482,0)
GPGPU-Sim uArch: Shader 2 finished CTA #0 (89766,0), 1 CTAs running
GPGPU-Sim uArch: core:  2, cta: 0 initialized @(89767,0)
GPGPU-Sim uArch: Shader 2 finished CTA #1 (89783,0), 1 CTAs running
GPGPU-Sim uArch: core:  2, cta: 1 initialized @(89784,0)
GPGPU-Sim uArch: Shader 0 finished CTA #1 (89785,0), 1 CTAs running
GPGPU-Sim uArch: core:  0, cta: 1 initialized @(89786,0)
GPGPU-Sim uArch: Shader 0 finished CTA #0 (89954,0), 1 CTAs running
GPGPU-Sim uArch: core:  0, cta: 0 initialized @(89955,0)
GPGPU-Sim uArch: Shader 3 finished CTA #1 (90344,0), 1 CTAs running
GPGPU-Sim uArch: core:  3, cta: 1 initialized @(90345,0)
GPGPU-Sim uArch: Shader 3 finished CTA #0 (90645,0), 1 CTAs running
GPGPU-Sim uArch: core:  3, cta: 0 initialized @(90646,0)
GPGPU-Sim uArch: Shader 9 finished CTA #0 (91814,0), 1 CTAs running
GPGPU-Sim uArch: core:  9, cta: 0 initialized @(91815,0)
GPGPU-Sim uArch: Shader 9 finished CTA #1 (91863,0), 1 CTAs running
GPGPU-Sim uArch: core:  9, cta: 1 initialized @(91864,0)
GPGPU-Sim uArch: Shader 11 finished CTA #0 (92113,0), 1 CTAs running
GPGPU-Sim uArch: core: 11, cta: 0 initialized @(92114,0)
GPGPU-Sim uArch: Shader 4 finished CTA #1 (92235,0), 1 CTAs running
GPGPU-Sim uArch: core:  4, cta: 1 initialized @(92236,0)
GPGPU-Sim uArch: Shader 7 finished CTA #1 (92237,0), 1 CTAs running
GPGPU-Sim uArch: core:  7, cta: 1 initialized @(92238,0)
GPGPU-Sim uArch: Shader 11 finished CTA #1 (92244,0), 1 CTAs running
GPGPU-Sim uArch: core: 11, cta: 1 initialized @(92245,0)
GPGPU-Sim uArch: Shader 12 finished CTA #1 (92314,0), 1 CTAs running
GPGPU-Sim uArch: core: 12, cta: 1 initialized @(92315,0)
GPGPU-Sim uArch: Shader 7 finished CTA #0 (92329,0), 1 CTAs running
GPGPU-Sim uArch: core:  7, cta: 0 initialized @(92330,0)
GPGPU-Sim uArch: Shader 12 finished CTA #0 (92331,0), 1 CTAs running
GPGPU-Sim uArch: core: 12, cta: 0 initialized @(92332,0)
GPGPU-Sim uArch: Shader 13 finished CTA #1 (92686,0), 1 CTAs running
GPGPU-Sim uArch: core: 13, cta: 1 initialized @(92687,0)
GPGPU-Sim uArch: Shader 13 finished CTA #0 (92703,0), 1 CTAs running
GPGPU-Sim uArch: core: 13, cta: 0 initialized @(92704,0)
GPGPU-Sim uArch: Shader 6 finished CTA #0 (93116,0), 1 CTAs running
GPGPU-Sim uArch: core:  6, cta: 0 initialized @(93117,0)
GPGPU-Sim uArch: Shader 6 finished CTA #1 (93133,0), 1 CTAs running
GPGPU-Sim uArch: core:  6, cta: 1 initialized @(93134,0)
GPGPU-Sim uArch: Shader 5 finished CTA #1 (93693,0), 1 CTAs running
GPGPU-Sim uArch: core:  5, cta: 1 initialized @(93694,0)
GPGPU-Sim uArch: Shader 4 finished CTA #0 (93724,0), 1 CTAs running
GPGPU-Sim uArch: core:  4, cta: 0 initialized @(93725,0)
GPGPU-Sim uArch: Shader 8 finished CTA #1 (93942,0), 1 CTAs running
GPGPU-Sim uArch: core:  8, cta: 1 initialized @(93943,0)
GPGPU-Sim uArch: Shader 1 finished CTA #1 (93955,0), 1 CTAs running
GPGPU-Sim uArch: core:  1, cta: 1 initialized @(93956,0)
GPGPU-Sim uArch: Shader 8 finished CTA #0 (94149,0), 1 CTAs running
GPGPU-Sim uArch: core:  8, cta: 0 initialized @(94150,0)
GPGPU-Sim uArch: Shader 1 finished CTA #0 (94231,0), 1 CTAs running
GPGPU-Sim uArch: core:  1, cta: 0 initialized @(94232,0)
GPGPU-Sim uArch: Shader 5 finished CTA #0 (94309,0), 1 CTAs running
GPGPU-Sim uArch: core:  5, cta: 0 initialized @(94310,0)
GPGPU-Sim uArch: Shader 10 finished CTA #1 (94905,0), 1 CTAs running
GPGPU-Sim uArch: core: 10, cta: 1 initialized @(94906,0)
GPGPU-Sim uArch: Shader 10 finished CTA #0 (94988,0), 1 CTAs running
GPGPU-Sim uArch: core: 10, cta: 0 initialized @(94989,0)
GPGPU-Sim uArch: Shader 0 finished CTA #0 (95472,0), 1 CTAs running
GPGPU-Sim uArch: core:  0, cta: 0 initialized @(95473,0)
GPGPU-Sim uArch: Shader 0 finished CTA #1 (95627,0), 1 CTAs running
GPGPU-Sim uArch: core:  0, cta: 1 initialized @(95628,0)
GPGPU-Sim uArch: Shader 2 finished CTA #0 (95731,0), 1 CTAs running
GPGPU-Sim uArch: core:  2, cta: 0 initialized @(95732,0)
GPGPU-Sim uArch: Shader 2 finished CTA #1 (95830,0), 1 CTAs running
GPGPU-Sim uArch: core:  2, cta: 1 initialized @(95831,0)
GPGPU-Sim uArch: Shader 3 finished CTA #0 (95890,0), 1 CTAs running
GPGPU-Sim uArch: core:  3, cta: 0 initialized @(95891,0)
GPGPU-Sim uArch: Shader 3 finished CTA #1 (95939,0), 1 CTAs running
GPGPU-Sim uArch: core:  3, cta: 1 initialized @(95940,0)
GPGPU-Sim uArch: Shader 9 finished CTA #0 (97665,0), 1 CTAs running
GPGPU-Sim uArch: core:  9, cta: 0 initialized @(97666,0)
GPGPU-Sim uArch: Shader 9 finished CTA #1 (97789,0), 1 CTAs running
GPGPU-Sim uArch: core:  9, cta: 1 initialized @(97790,0)
GPGPU-Sim uArch: Shader 4 finished CTA #1 (98060,0), 1 CTAs running
GPGPU-Sim uArch: core:  4, cta: 1 initialized @(98061,0)
GPGPU-Sim uArch: Shader 12 finished CTA #0 (98076,0), 1 CTAs running
GPGPU-Sim uArch: core: 12, cta: 0 initialized @(98077,0)
GPGPU-Sim uArch: Shader 11 finished CTA #1 (98190,0), 1 CTAs running
GPGPU-Sim uArch: core: 11, cta: 1 initialized @(98191,0)
GPGPU-Sim uArch: Shader 13 finished CTA #0 (98194,0), 1 CTAs running
GPGPU-Sim uArch: core: 13, cta: 0 initialized @(98195,0)
GPGPU-Sim uArch: Shader 7 finished CTA #0 (98196,0), 1 CTAs running
GPGPU-Sim uArch: core:  7, cta: 0 initialized @(98197,0)
GPGPU-Sim uArch: Shader 12 finished CTA #1 (98200,0), 1 CTAs running
GPGPU-Sim uArch: core: 12, cta: 1 initialized @(98201,0)
GPGPU-Sim uArch: Shader 7 finished CTA #1 (98213,0), 1 CTAs running
GPGPU-Sim uArch: core:  7, cta: 1 initialized @(98214,0)
GPGPU-Sim uArch: Shader 13 finished CTA #1 (98302,0), 1 CTAs running
GPGPU-Sim uArch: core: 13, cta: 1 initialized @(98303,0)
GPGPU-Sim uArch: Shader 11 finished CTA #0 (98372,0), 1 CTAs running
GPGPU-Sim uArch: core: 11, cta: 0 initialized @(98373,0)
GPGPU-Sim uArch: Shader 6 finished CTA #1 (99017,0), 1 CTAs running
GPGPU-Sim uArch: core:  6, cta: 1 initialized @(99018,0)
[...]
GPGPU-Sim uArch: Shader 0 finished CTA #0 (1268691,0), 1 CTAs running
GPGPU-Sim uArch: core:  0, cta: 0 initialized @(1268692,0)
GPGPU-Sim uArch: Shader 4 finished CTA #1 (1268781,0), 1 CTAs running
GPGPU-Sim uArch: core:  4, cta: 1 initialized @(1268782,0)
GPGPU-Sim uArch: Shader 3 finished CTA #0 (1268788,0), 1 CTAs running
GPGPU-Sim uArch: core:  3, cta: 0 initialized @(1268789,0)
GPGPU-Sim uArch: Shader 7 finished CTA #1 (1268806,0), 1 CTAs running
GPGPU-Sim uArch: core:  7, cta: 1 initialized @(1268807,0)
GPGPU-Sim uArch: Shader 3 finished CTA #1 (1268864,0), 1 CTAs running
GPGPU-Sim uArch: core:  3, cta: 1 initialized @(1268865,0)
GPGPU-Sim uArch: Shader 4 finished CTA #0 (1268880,0), 1 CTAs running
GPGPU-Sim uArch: core:  4, cta: 0 initialized @(1268881,0)
GPGPU-Sim uArch: Shader 2 finished CTA #1 (1269139,0), 1 CTAs running
GPGPU-Sim uArch: Shader 7 finished CTA #0 (1269139,0), 1 CTAs running
GPGPU-Sim uArch: Shader 10 finished CTA #0 (1269725,0), 1 CTAs running
GPGPU-Sim uArch: Shader 10 finished CTA #1 (1269738,0), 0 CTAs running
GPGPU-Sim uArch: Shader 10 empty (release kernel 1 'findRangeK').
GPGPU-Sim uArch: Shader 1 finished CTA #1 (1270538,0), 1 CTAs running
GPGPU-Sim uArch: Shader 5 finished CTA #0 (1270555,0), 1 CTAs running
GPGPU-Sim uArch: Shader 1 finished CTA #0 (1270575,0), 0 CTAs running
GPGPU-Sim uArch: Shader 1 empty (release kernel 1 'findRangeK').
GPGPU-Sim uArch: Shader 8 finished CTA #1 (1270719,0), 1 CTAs running
GPGPU-Sim uArch: Shader 5 finished CTA #1 (1270721,0), 0 CTAs running
GPGPU-Sim uArch: Shader 5 empty (release kernel 1 'findRangeK').
GPGPU-Sim uArch: Shader 8 finished CTA #0 (1270815,0), 0 CTAs running
GPGPU-Sim uArch: Shader 8 empty (release kernel 1 'findRangeK').
GPGPU-Sim uArch: Shader 6 finished CTA #1 (1271180,0), 1 CTAs running
GPGPU-Sim uArch: Shader 6 finished CTA #0 (1271325,0), 0 CTAs running
GPGPU-Sim uArch: Shader 6 empty (release kernel 1 'findRangeK').
GPGPU-Sim uArch: Shader 13 finished CTA #1 (1272875,0), 1 CTAs running
GPGPU-Sim uArch: Shader 13 finished CTA #0 (1272964,0), 0 CTAs running
GPGPU-Sim uArch: Shader 13 empty (release kernel 1 'findRangeK').
GPGPU-Sim uArch: Shader 9 finished CTA #0 (1272972,0), 1 CTAs running
GPGPU-Sim uArch: Shader 12 finished CTA #0 (1272994,0), 1 CTAs running
GPGPU-Sim uArch: Shader 9 finished CTA #1 (1273128,0), 0 CTAs running
GPGPU-Sim uArch: Shader 9 empty (release kernel 1 'findRangeK').
GPGPU-Sim uArch: Shader 12 finished CTA #1 (1273130,0), 0 CTAs running
GPGPU-Sim uArch: Shader 12 empty (release kernel 1 'findRangeK').
GPGPU-Sim uArch: Shader 11 finished CTA #1 (1273304,0), 1 CTAs running
GPGPU-Sim uArch: Shader 11 finished CTA #0 (1273318,0), 0 CTAs running
GPGPU-Sim uArch: Shader 11 empty (release kernel 1 'findRangeK').
GPGPU-Sim uArch: Shader 2 finished CTA #0 (1273452,0), 0 CTAs running
GPGPU-Sim uArch: Shader 2 empty (release kernel 1 'findRangeK').
GPGPU-Sim uArch: Shader 0 finished CTA #0 (1273860,0), 1 CTAs running
GPGPU-Sim uArch: Shader 3 finished CTA #1 (1274013,0), 1 CTAs running
GPGPU-Sim uArch: Shader 7 finished CTA #1 (1274336,0), 0 CTAs running
GPGPU-Sim uArch: Shader 7 empty (release kernel 1 'findRangeK').
GPGPU-Sim uArch: Shader 4 finished CTA #1 (1274351,0), 1 CTAs running
GPGPU-Sim uArch: Shader 4 finished CTA #0 (1274460,0), 0 CTAs running
GPGPU-Sim uArch: Shader 4 empty (release kernel 1 'findRangeK').
GPGPU-Sim uArch: Shader 0 finished CTA #1 (1274490,0), 0 CTAs running
GPGPU-Sim uArch: Shader 0 empty (release kernel 1 'findRangeK').
GPGPU-Sim uArch: Shader 3 finished CTA #0 (1274640,0), 0 CTAs running
GPGPU-Sim uArch: Shader 3 empty (release kernel 1 'findRangeK').
GPGPU-Sim uArch: GPU detected kernel 'findRangeK' finished on shader 3.
kernel_name = findRangeK 
kernel_launch_uid = 1 
gpu_sim_cycle = 1274641
gpu_sim_insn = 371200113
gpu_ipc =     291.2194
gpu_tot_sim_cycle = 1274641
gpu_tot_sim_insn = 371200113
gpu_tot_ipc =     291.2194
gpu_tot_issued_cta = 0
gpu_stall_dramfull = 9433
gpu_stall_icnt2sh    = 2687065
gpu_total_sim_rate=661675

========= Core cache stats =========
L1I_cache:
	L1I_total_cache_accesses = 7351591
	L1I_total_cache_misses = 3323
	L1I_total_cache_miss_rate = 0.0005
	L1I_total_cache_pending_hits = 0
	L1I_total_cache_reservation_fails = 0
L1D_cache:
	L1D_cache_core[0]: Access = 182153, Miss = 31786, Miss_rate = 0.175, Pending_hits = 36903, Reservation_fails = 350409
	L1D_cache_core[1]: Access = 181141, Miss = 32031, Miss_rate = 0.177, Pending_hits = 36566, Reservation_fails = 355047
	L1D_cache_core[2]: Access = 181151, Miss = 32298, Miss_rate = 0.178, Pending_hits = 36962, Reservation_fails = 357542
	L1D_cache_core[3]: Access = 181140, Miss = 31958, Miss_rate = 0.176, Pending_hits = 37448, Reservation_fails = 360217
	L1D_cache_core[4]: Access = 181731, Miss = 32235, Miss_rate = 0.177, Pending_hits = 37000, Reservation_fails = 356891
	L1D_cache_core[5]: Access = 180194, Miss = 31718, Miss_rate = 0.176, Pending_hits = 36919, Reservation_fails = 354822
	L1D_cache_core[6]: Access = 181884, Miss = 32068, Miss_rate = 0.176, Pending_hits = 36961, Reservation_fails = 347949
	L1D_cache_core[7]: Access = 181126, Miss = 31574, Miss_rate = 0.174, Pending_hits = 36788, Reservation_fails = 357820
	L1D_cache_core[8]: Access = 181372, Miss = 31933, Miss_rate = 0.176, Pending_hits = 36514, Reservation_fails = 351439
	L1D_cache_core[9]: Access = 182301, Miss = 32077, Miss_rate = 0.176, Pending_hits = 37075, Reservation_fails = 352386
	L1D_cache_core[10]: Access = 181233, Miss = 32037, Miss_rate = 0.177, Pending_hits = 36692, Reservation_fails = 350300
	L1D_cache_core[11]: Access = 181117, Miss = 32204, Miss_rate = 0.178, Pending_hits = 36801, Reservation_fails = 353789
	L1D_cache_core[12]: Access = 181280, Miss = 31866, Miss_rate = 0.176, Pending_hits = 36776, Reservation_fails = 359342
	L1D_cache_core[13]: Access = 182207, Miss = 32052, Miss_rate = 0.176, Pending_hits = 37128, Reservation_fails = 352238
	L1D_total_cache_accesses = 2540030
	L1D_total_cache_misses = 447837
	L1D_total_cache_miss_rate = 0.1763
	L1D_total_cache_pending_hits = 516533
	L1D_total_cache_reservation_fails = 4960191
	L1D_cache_data_port_util = 0.088
	L1D_cache_fill_port_util = 0.023
L1C_cache:
	L1C_total_cache_accesses = 0
	L1C_total_cache_misses = 0
	L1C_total_cache_pending_hits = 0
	L1C_total_cache_reservation_fails = 0
L1T_cache:
	L1T_total_cache_accesses = 0
	L1T_total_cache_misses = 0
	L1T_total_cache_pending_hits = 0
	L1T_total_cache_reservation_fails = 0

Total_core_cache_stats:
	Total_core_cache_stats_breakdown[GLOBAL_ACC_R][HIT] = 1554697
	Total_core_cache_stats_breakdown[GLOBAL_ACC_R][HIT_RESERVED] = 515981
	Total_core_cache_stats_breakdown[GLOBAL_ACC_R][MISS] = 409352
	Total_core_cache_stats_breakdown[GLOBAL_ACC_R][RESERVATION_FAIL] = 4960191
	Total_core_cache_stats_breakdown[GLOBAL_ACC_W][HIT] = 20963
	Total_core_cache_stats_breakdown[GLOBAL_ACC_W][HIT_RESERVED] = 552
	Total_core_cache_stats_breakdown[GLOBAL_ACC_W][MISS] = 38485
	Total_core_cache_stats_breakdown[INST_ACC_R][HIT] = 7348268
	Total_core_cache_stats_breakdown[INST_ACC_R][MISS] = 3323
Shader 0 warp_id issue ditsribution:
warp_id:
0, 1, 2, 3, 4, 5, 6, 7, 8, 9, 10, 11, 12, 13, 14, 15, 16, 17, 18, 19, 20, 21, 22, 23, 24, 25, 26, 27, 28, 29, 30, 31, 
distro:
37359, 32160, 31767, 31744, 31482, 31281, 30926, 30729, 30008, 29957, 29945, 29957, 29885, 29885, 29885, 29885, 37455, 32232, 31771, 31522, 31426, 31181, 30938, 30613, 29986, 29981, 29953, 29945, 29885, 29885, 29885, 29885, 
gpgpu_n_tot_thrd_icount = 443601152
gpgpu_n_tot_w_icount = 13862536
gpgpu_n_stall_shd_mem = 5578087
gpgpu_n_mem_read_local = 0
gpgpu_n_mem_write_local = 0
gpgpu_n_mem_read_global = 409352
gpgpu_n_mem_write_global = 60000
gpgpu_n_mem_texture = 0
gpgpu_n_mem_const = 0
gpgpu_n_load_insn  = 56639371
gpgpu_n_store_insn = 60000
gpgpu_n_shmem_insn = 6096000
gpgpu_n_tex_insn = 0
gpgpu_n_const_mem_insn = 0
gpgpu_n_param_mem_insn = 0
gpgpu_n_shmem_bkconflict = 0
gpgpu_n_cache_bkconflict = 0
gpgpu_n_intrawarp_mshr_merge = 0
gpgpu_n_cmem_portconflict = 0
gpgpu_stall_shd_mem[c_mem][bk_conf] = 0
gpgpu_stall_shd_mem[c_mem][mshr_rc] = 0
gpgpu_stall_shd_mem[c_mem][icnt_rc] = 0
gpgpu_stall_shd_mem[c_mem][data_port_stall] = 0
gpgpu_stall_shd_mem[t_mem][mshr_rc] = 0
gpgpu_stall_shd_mem[t_mem][icnt_rc] = 0
gpgpu_stall_shd_mem[t_mem][data_port_stall] = 0
gpgpu_stall_shd_mem[s_mem][bk_conf] = 0
gpgpu_stall_shd_mem[gl_mem][bk_conf] = 0
gpgpu_stall_shd_mem[gl_mem][coal_stall] = 5578087
gpgpu_stall_shd_mem[gl_mem][data_port_stall] = 0
gpgpu_stall_shd_mem[g_mem_ld][mshr_rc] = 0
gpgpu_stall_shd_mem[g_mem_ld][icnt_rc] = 0
gpgpu_stall_shd_mem[g_mem_ld][wb_icnt_rc] = 0
gpgpu_stall_shd_mem[g_mem_ld][wb_rsrv_fail] = 0
gpgpu_stall_shd_mem[g_mem_st][mshr_rc] = 0
gpgpu_stall_shd_mem[g_mem_st][icnt_rc] = 0
gpgpu_stall_shd_mem[g_mem_st][wb_icnt_rc] = 0
gpgpu_stall_shd_mem[g_mem_st][wb_rsrv_fail] = 0
gpgpu_stall_shd_mem[l_mem_ld][mshr_rc] = 0
gpgpu_stall_shd_mem[l_mem_ld][icnt_rc] = 0
gpgpu_stall_shd_mem[l_mem_ld][wb_icnt_rc] = 0
gpgpu_stall_shd_mem[l_mem_ld][wb_rsrv_fail] = 0
gpgpu_stall_shd_mem[l_mem_st][mshr_rc] = 0
gpgpu_stall_shd_mem[l_mem_st][icnt_rc] = 0
gpgpu_stall_shd_mem[l_mem_ld][wb_icnt_rc] = 0
gpgpu_stall_shd_mem[l_mem_ld][wb_rsrv_fail] = 0
gpu_reg_bank_conflict_stalls = 0
Warp Occupancy Distribution:
Stall:8923920	W0_Idle:2773456	W0_Scoreboard:10074300	W1:250328	W2:4784	W3:4832	W4:4444	W5:4488	W6:4324	W7:4568	W8:4820	W9:4648	W10:4604	W11:4668	W12:4592	W13:4604	W14:4384	W15:6272	W16:1576	W17:1524	W18:1608	W19:1464	W20:1512	W21:1492	W22:1364	W23:1444	W24:1692	W25:1468	W26:1552	W27:1468	W28:835572	W29:1620	W30:1468	W31:1508	W32:12687844
traffic_breakdown_coretomem[GLOBAL_ACC_R] = 3274816 {8:409352,}
traffic_breakdown_coretomem[GLOBAL_ACC_W] = 2400000 {40:60000,}
traffic_breakdown_coretomem[INST_ACC_R] = 896 {8:112,}
traffic_breakdown_memtocore[GLOBAL_ACC_R] = 55671872 {136:409352,}
traffic_breakdown_memtocore[GLOBAL_ACC_W] = 480000 {8:60000,}
traffic_breakdown_memtocore[INST_ACC_R] = 15232 {136:112,}
Memory Partition 0: 
Cache L2_bank_000:
MSHR contents

Cache L2_bank_001:
MSHR contents

In Dram Latency Queue (total = 0): 
DRAM[0]: 16 bks, busW=4 BL=8 CL=12, tRRD=2 tCCD=6, tRCD=12 tRAS=28 tRP=12 tRC=40
n_cmd=1662574 n_nop=1557832 n_act=18116 n_pre=18100 n_req=34524 n_rd=67392 n_write=1134 bw_util=0.08243
n_activity=607163 dram_eff=0.2257
bk0: 4418a 1618215i bk1: 4144a 1621494i bk2: 4506a 1619374i bk3: 4328a 1621250i bk4: 4120a 1623105i bk5: 4102a 1623696i bk6: 4538a 1617369i bk7: 4470a 1617408i bk8: 4060a 1621118i bk9: 3874a 1623659i bk10: 4078a 1622352i bk11: 4186a 1621505i bk12: 4164a 1621031i bk13: 4028a 1621270i bk14: 4306a 1621865i bk15: 4070a 1623390i 
dram_util_bins: 0 0 0 0 0 0 0 0 0 0
dram_eff_bins: 0 0 0 0 0 0 0 0 0 0
mrqq: max=16 avg=0.199363
Memory Partition 1: 
Cache L2_bank_002:
MSHR contents

Cache L2_bank_003:
MSHR contents

In Dram Latency Queue (total = 0): 
DRAM[1]: 16 bks, busW=4 BL=8 CL=12, tRRD=2 tCCD=6, tRCD=12 tRAS=28 tRP=12 tRC=40
n_cmd=1662574 n_nop=1558084 n_act=18092 n_pre=18076 n_req=34419 n_rd=67204 n_write=1118 bw_util=0.08219
n_activity=604798 dram_eff=0.2259
bk0: 4316a 1619094i bk1: 4304a 1619349i bk2: 4500a 1620069i bk3: 4268a 1621718i bk4: 4156a 1623025i bk5: 4068a 1623539i bk6: 4428a 1618824i bk7: 4408a 1617883i bk8: 4012a 1622558i bk9: 3976a 1622980i bk10: 4008a 1623414i bk11: 4230a 1621479i bk12: 4132a 1620412i bk13: 3932a 1622653i bk14: 4406a 1620837i bk15: 4060a 1623531i 
dram_util_bins: 0 0 0 0 0 0 0 0 0 0
dram_eff_bins: 0 0 0 0 0 0 0 0 0 0
mrqq: max=16 avg=0.198277
Memory Partition 2: 
Cache L2_bank_004:
MSHR contents

Cache L2_bank_005:
MSHR contents

In Dram Latency Queue (total = 0): 
DRAM[2]: 16 bks, busW=4 BL=8 CL=12, tRRD=2 tCCD=6, tRCD=12 tRAS=28 tRP=12 tRC=40
n_cmd=1662574 n_nop=1557519 n_act=18155 n_pre=18139 n_req=34644 n_rd=67634 n_write=1127 bw_util=0.08272
n_activity=604246 dram_eff=0.2276
bk0: 4218a 1620255i bk1: 4290a 1619934i bk2: 4444a 1620859i bk3: 4290a 1621794i bk4: 4092a 1624241i bk5: 4144a 1623600i bk6: 4446a 1618206i bk7: 4486a 1617728i bk8: 4090a 1621049i bk9: 4066a 1621589i bk10: 4112a 1621722i bk11: 4234a 1620904i bk12: 4160a 1620405i bk13: 4026a 1621848i bk14: 4352a 1620711i bk15: 4184a 1621987i 
dram_util_bins: 0 0 0 0 0 0 0 0 0 0
dram_eff_bins: 0 0 0 0 0 0 0 0 0 0
mrqq: max=16 avg=0.199662
Memory Partition 3: 
Cache L2_bank_006:
MSHR contents

Cache L2_bank_007:
MSHR contents

In Dram Latency Queue (total = 0): 
DRAM[3]: 16 bks, busW=4 BL=8 CL=12, tRRD=2 tCCD=6, tRCD=12 tRAS=28 tRP=12 tRC=40
n_cmd=1662574 n_nop=1556630 n_act=18309 n_pre=18293 n_req=34925 n_rd=68228 n_write=1114 bw_util=0.08342
n_activity=609108 dram_eff=0.2277
bk0: 4172a 1621236i bk1: 4300a 1620318i bk2: 4464a 1619739i bk3: 4254a 1622162i bk4: 4174a 1622947i bk5: 4096a 1624387i bk6: 4626a 1616249i bk7: 4656a 1616068i bk8: 3996a 1621838i bk9: 4092a 1621456i bk10: 4138a 1621799i bk11: 4218a 1621015i bk12: 4180a 1619796i bk13: 4160a 1620518i bk14: 4438a 1620656i bk15: 4264a 1621573i 
dram_util_bins: 0 0 0 0 0 0 0 0 0 0
dram_eff_bins: 0 0 0 0 0 0 0 0 0 0
mrqq: max=16 avg=0.202308
Memory Partition 4: 
Cache L2_bank_008:
MSHR contents

Cache L2_bank_009:
MSHR contents

In Dram Latency Queue (total = 0): 
DRAM[4]: 16 bks, busW=4 BL=8 CL=12, tRRD=2 tCCD=6, tRCD=12 tRAS=28 tRP=12 tRC=40
n_cmd=1662574 n_nop=1557185 n_act=18195 n_pre=18179 n_req=34765 n_rd=67894 n_write=1121 bw_util=0.08302
n_activity=606029 dram_eff=0.2278
bk0: 4128a 1621232i bk1: 4356a 1619333i bk2: 4396a 1620909i bk3: 4324a 1621158i bk4: 4064a 1624166i bk5: 4098a 1624177i bk6: 4478a 1618583i bk7: 4710a 1615887i bk8: 3916a 1623364i bk9: 4104a 1621058i bk10: 4218a 1621331i bk11: 4138a 1621647i bk12: 4150a 1619588i bk13: 4234a 1619698i bk14: 4356a 1620504i bk15: 4224a 1622029i 
dram_util_bins: 0 0 0 0 0 0 0 0 0 0
dram_eff_bins: 0 0 0 0 0 0 0 0 0 0
mrqq: max=16 avg=0.20244
Memory Partition 5: 
Cache L2_bank_010:
MSHR contents

Cache L2_bank_011:
MSHR contents

In Dram Latency Queue (total = 0): 
DRAM[5]: 16 bks, busW=4 BL=8 CL=12, tRRD=2 tCCD=6, tRCD=12 tRAS=28 tRP=12 tRC=40
n_cmd=1662574 n_nop=1557585 n_act=18109 n_pre=18093 n_req=34659 n_rd=67644 n_write=1143 bw_util=0.08275
n_activity=607346 dram_eff=0.2265
bk0: 4080a 1621738i bk1: 4380a 1619436i bk2: 4268a 1622486i bk3: 4404a 1620933i bk4: 4050a 1624396i bk5: 4128a 1624061i bk6: 4472a 1618837i bk7: 4674a 1615504i bk8: 3878a 1623692i bk9: 4104a 1621506i bk10: 4296a 1620084i bk11: 4150a 1621762i bk12: 4124a 1620218i bk13: 4290a 1618602i bk14: 4114a 1623022i bk15: 4232a 1622014i 
dram_util_bins: 0 0 0 0 0 0 0 0 0 0
dram_eff_bins: 0 0 0 0 0 0 0 0 0 0
mrqq: max=16 avg=0.200117

========= L2 cache stats =========
L2_cache_bank[0]: Access = 35428, Miss = 17095, Miss_rate = 0.483, Pending_hits = 321, Reservation_fails = 1954
L2_cache_bank[1]: Access = 39737, Miss = 16601, Miss_rate = 0.418, Pending_hits = 287, Reservation_fails = 1632
L2_cache_bank[2]: Access = 35144, Miss = 16979, Miss_rate = 0.483, Pending_hits = 331, Reservation_fails = 1153
L2_cache_bank[3]: Access = 41381, Miss = 16623, Miss_rate = 0.402, Pending_hits = 282, Reservation_fails = 1459
L2_cache_bank[4]: Access = 35006, Miss = 16957, Miss_rate = 0.484, Pending_hits = 291, Reservation_fails = 1733
L2_cache_bank[5]: Access = 41132, Miss = 16860, Miss_rate = 0.410, Pending_hits = 333, Reservation_fails = 2158
L2_cache_bank[6]: Access = 40000, Miss = 17094, Miss_rate = 0.427, Pending_hits = 294, Reservation_fails = 1826
L2_cache_bank[7]: Access = 40050, Miss = 17020, Miss_rate = 0.425, Pending_hits = 312, Reservation_fails = 1112
L2_cache_bank[8]: Access = 40342, Miss = 16853, Miss_rate = 0.418, Pending_hits = 310, Reservation_fails = 1555
L2_cache_bank[9]: Access = 40050, Miss = 17094, Miss_rate = 0.427, Pending_hits = 296, Reservation_fails = 1801
L2_cache_bank[10]: Access = 40011, Miss = 16641, Miss_rate = 0.416, Pending_hits = 314, Reservation_fails = 1860
L2_cache_bank[11]: Access = 41183, Miss = 17181, Miss_rate = 0.417, Pending_hits = 320, Reservation_fails = 1788
L2_total_cache_accesses = 469464
L2_total_cache_misses = 202998
L2_total_cache_miss_rate = 0.4324
L2_total_cache_pending_hits = 3691
L2_total_cache_reservation_fails = 20031
L2_total_cache_breakdown:
	L2_cache_stats_breakdown[GLOBAL_ACC_R][HIT] = 205814
	L2_cache_stats_breakdown[GLOBAL_ACC_R][HIT_RESERVED] = 1674
	L2_cache_stats_breakdown[GLOBAL_ACC_R][MISS] = 201864
	L2_cache_stats_breakdown[GLOBAL_ACC_R][RESERVATION_FAIL] = 5897
	L2_cache_stats_breakdown[GLOBAL_ACC_W][HIT] = 56881
	L2_cache_stats_breakdown[GLOBAL_ACC_W][HIT_RESERVED] = 1993
	L2_cache_stats_breakdown[GLOBAL_ACC_W][MISS] = 1126
	L2_cache_stats_breakdown[GLOBAL_ACC_W][RESERVATION_FAIL] = 13414
	L2_cache_stats_breakdown[INST_ACC_R][HIT] = 80
	L2_cache_stats_breakdown[INST_ACC_R][HIT_RESERVED] = 24
	L2_cache_stats_breakdown[INST_ACC_R][MISS] = 8
	L2_cache_stats_breakdown[INST_ACC_R][RESERVATION_FAIL] = 720
L2_cache_data_port_util = 0.058
L2_cache_fill_port_util = 0.053

icnt_total_pkts_mem_to_simt=2107320
icnt_total_pkts_simt_to_mem=529464
LD_mem_lat_dist  0 0 0 0 0 0 0 0 0 0 0 0 0 0 0 0 0 0 0 0 0 0 0 0 0 0 0
ST_mem_lat_dist  0 0 0 0 0 0 0 0 0 0 0 0 0 0 0 0 0 0 0 0 0 0 0 0 0 0 0
----------------------------Interconnect-DETAILS--------------------------------
Class 0:
Packet latency average = 27.4348
	minimum = 6
	maximum = 184
Network latency average = 22.2669
	minimum = 6
	maximum = 147
Slowest packet = 962
Flit latency average = 24.6177
	minimum = 6
	maximum = 143
Slowest flit = 407745
Fragmentation average = 0.000146976
	minimum = 0
	maximum = 68
Injected packet rate average = 0.0283316
	minimum = 0.0259618 (at node 7)
	maximum = 0.0324648 (at node 17)
Accepted packet rate average = 0.0283316
	minimum = 0.0259618 (at node 7)
	maximum = 0.0324648 (at node 17)
Injected flit rate average = 0.0795634
	minimum = 0.0293118 (at node 7)
	maximum = 0.146659 (at node 17)
Accepted flit rate average= 0.0795634
	minimum = 0.0313547 (at node 18)
	maximum = 0.11943 (at node 2)
Injected packet length average = 2.80829
Accepted packet length average = 2.80829
Total in-flight flits = 0 (0 measured)
====== Overall Traffic Statistics ======
====== Traffic class 0 ======
Packet latency average = 27.4348 (1 samples)
	minimum = 6 (1 samples)
	maximum = 184 (1 samples)
Network latency average = 22.2669 (1 samples)
	minimum = 6 (1 samples)
	maximum = 147 (1 samples)
Flit latency average = 24.6177 (1 samples)
	minimum = 6 (1 samples)
	maximum = 143 (1 samples)
Fragmentation average = 0.000146976 (1 samples)
	minimum = 0 (1 samples)
	maximum = 68 (1 samples)
Injected packet rate average = 0.0283316 (1 samples)
	minimum = 0.0259618 (1 samples)
	maximum = 0.0324648 (1 samples)
Accepted packet rate average = 0.0283316 (1 samples)
	minimum = 0.0259618 (1 samples)
	maximum = 0.0324648 (1 samples)
Injected flit rate average = 0.0795634 (1 samples)
	minimum = 0.0293118 (1 samples)
	maximum = 0.146659 (1 samples)
Accepted flit rate average = 0.0795634 (1 samples)
	minimum = 0.0313547 (1 samples)
	maximum = 0.11943 (1 samples)
Injected packet size average = 2.80829 (1 samples)
Accepted packet size average = 2.80829 (1 samples)
Hops average = 1 (1 samples)
----------------------------END-of-Interconnect-DETAILS-------------------------


gpgpu_simulation_time = 0 days, 0 hrs, 9 min, 21 sec (561 sec)
gpgpu_simulation_rate = 661675 (inst/sec)
gpgpu_simulation_rate = 2272 (cycle/sec)
GPGPU-Sim: synchronize waiting for inactive GPU simulation
GPGPU-Sim API: Stream Manager State
GPGPU-Sim: detected inactive GPU simulation thread
Time spent in different stages of GPU_CUDA KERNEL:
 0.000044000000 s,  0.000007854198 % : GPU: SET DEVICE / DRIVER INIT
 0.000003000000 s,  0.000000535513 % : GPU MEM: ALO
 0.309749990702 s,  0.055291764438 % : GPU MEM: COPY IN
559.899353027344 s, 99.944541931152 % : GPU: KERNEL
 0.000853999984 s,  0.000152442837 % : GPU MEM: COPY OUT
 0.000002000000 s,  0.000000357009 % : GPU MEM: FRE
Total time:
560.209960937500 s
> > > > > > > > > > > > > > 
