

        *** GPGPU-Sim Simulator Version 3.2.2  [build 17315] ***


GPGPU-Sim PTX: simulation mode 0 (can change with PTX_SIM_MODE_FUNC environment variable:
               1=functional simulation only, 0=detailed performance simulator)
GPGPU-Sim: Configuration options:

-network_mode                           1 # Interconnection network mode
-inter_config_file   config_fermi_islip.icnt # Interconnection network config file
-gpgpu_ptx_use_cuobjdump                    1 # Use cuobjdump to extract ptx and sass from binaries
-gpgpu_experimental_lib_support                    0 # Try to extract code from cuda libraries [Broken because of unknown cudaGetExportTable]
-gpgpu_ptx_convert_to_ptxplus                    1 # Convert SASS (native ISA) to ptxplus and run ptxplus
-gpgpu_ptx_force_max_capability                   20 # Force maximum compute capability
-gpgpu_ptx_inst_debug_to_file                    0 # Dump executed instructions' debug information to file
-gpgpu_ptx_inst_debug_file       inst_debug.txt # Executed instructions' debug output file
-gpgpu_ptx_inst_debug_thread_uid                    1 # Thread UID for executed instructions' debug output
-gpgpu_simd_model                       1 # 1 = post-dominator
-gpgpu_shader_core_pipeline              1536:32 # shader core pipeline config, i.e., {<nthread>:<warpsize>}
-gpgpu_tex_cache:l1  4:128:24,L:R:m:N,F:128:4,128:2 # per-shader L1 texture cache  (READ-ONLY) config  {<nsets>:<bsize>:<assoc>,<rep>:<wr>:<alloc>:<wr_alloc>,<mshr>:<N>:<merge>,<mq>:<rf>}
-gpgpu_const_cache:l1 64:64:2,L:R:f:N,A:2:32,4 # per-shader L1 constant memory cache  (READ-ONLY) config  {<nsets>:<bsize>:<assoc>,<rep>:<wr>:<alloc>:<wr_alloc>,<mshr>:<N>:<merge>,<mq>} 
-gpgpu_cache:il1     4:128:4,L:R:f:N,A:2:32,4 # shader L1 instruction cache config  {<nsets>:<bsize>:<assoc>,<rep>:<wr>:<alloc>:<wr_alloc>,<mshr>:<N>:<merge>,<mq>} 
-gpgpu_cache:dl1     32:128:4,L:L:m:N,A:32:8,8 # per-shader L1 data cache config  {<nsets>:<bsize>:<assoc>,<rep>:<wr>:<alloc>:<wr_alloc>,<mshr>:<N>:<merge>,<mq> | none}
-gpgpu_cache:dl1PrefL1                 none # per-shader L1 data cache config  {<nsets>:<bsize>:<assoc>,<rep>:<wr>:<alloc>:<wr_alloc>,<mshr>:<N>:<merge>,<mq> | none}
-gpgpu_cache:dl1PreShared                 none # per-shader L1 data cache config  {<nsets>:<bsize>:<assoc>,<rep>:<wr>:<alloc>:<wr_alloc>,<mshr>:<N>:<merge>,<mq> | none}
-gmem_skip_L1D                          0 # global memory access skip L1D cache (implements -Xptxas -dlcm=cg, default=no skip)
-gpgpu_perfect_mem                      0 # enable perfect memory mode (no cache miss)
-n_regfile_gating_group                    4 # group of lanes that should be read/written together)
-gpgpu_clock_gated_reg_file                    0 # enable clock gated reg file for power calculations
-gpgpu_clock_gated_lanes                    0 # enable clock gated lanes for power calculations
-gpgpu_shader_registers                32768 # Number of registers per shader core. Limits number of concurrent CTAs. (default 8192)
-gpgpu_shader_cta                       8 # Maximum number of concurrent CTAs in shader (default 8)
-gpgpu_n_clusters                      14 # number of processing clusters
-gpgpu_n_cores_per_cluster                    1 # number of simd cores per cluster
-gpgpu_n_cluster_ejection_buffer_size                    8 # number of packets in ejection buffer
-gpgpu_n_ldst_response_buffer_size                    2 # number of response packets in ld/st unit ejection buffer
-gpgpu_shmem_size                   16384 # Size of shared memory per shader core (default 16kB)
-gpgpu_shmem_size                   49152 # Size of shared memory per shader core (default 16kB)
-gpgpu_shmem_size_PrefL1                16384 # Size of shared memory per shader core (default 16kB)
-gpgpu_shmem_size_PrefShared                16384 # Size of shared memory per shader core (default 16kB)
-gpgpu_shmem_num_banks                   32 # Number of banks in the shared memory in each shader core (default 16)
-gpgpu_shmem_limited_broadcast                    0 # Limit shared memory to do one broadcast per cycle (default on)
-gpgpu_shmem_warp_parts                    1 # Number of portions a warp is divided into for shared memory bank conflict check 
-gpgpu_warpdistro_shader                   -1 # Specify which shader core to collect the warp size distribution from
-gpgpu_warp_issue_shader                    0 # Specify which shader core to collect the warp issue distribution from
-gpgpu_local_mem_map                    1 # Mapping from local memory space address to simulated GPU physical address space (default = enabled)
-gpgpu_num_reg_banks                   16 # Number of register banks (default = 8)
-gpgpu_reg_bank_use_warp_id                    0 # Use warp ID in mapping registers to banks (default = off)
-gpgpu_operand_collector_num_units_sp                    6 # number of collector units (default = 4)
-gpgpu_operand_collector_num_units_sfu                    8 # number of collector units (default = 4)
-gpgpu_operand_collector_num_units_mem                    2 # number of collector units (default = 2)
-gpgpu_operand_collector_num_units_gen                    0 # number of collector units (default = 0)
-gpgpu_operand_collector_num_in_ports_sp                    2 # number of collector unit in ports (default = 1)
-gpgpu_operand_collector_num_in_ports_sfu                    1 # number of collector unit in ports (default = 1)
-gpgpu_operand_collector_num_in_ports_mem                    1 # number of collector unit in ports (default = 1)
-gpgpu_operand_collector_num_in_ports_gen                    0 # number of collector unit in ports (default = 0)
-gpgpu_operand_collector_num_out_ports_sp                    2 # number of collector unit in ports (default = 1)
-gpgpu_operand_collector_num_out_ports_sfu                    1 # number of collector unit in ports (default = 1)
-gpgpu_operand_collector_num_out_ports_mem                    1 # number of collector unit in ports (default = 1)
-gpgpu_operand_collector_num_out_ports_gen                    0 # number of collector unit in ports (default = 0)
-gpgpu_coalesce_arch                   13 # Coalescing arch (default = 13, anything else is off for now)
-gpgpu_num_sched_per_core                    2 # Number of warp schedulers per core
-gpgpu_max_insn_issue_per_warp                    1 # Max number of instructions that can be issued per warp in one cycle by scheduler
-gpgpu_simt_core_sim_order                    1 # Select the simulation order of cores in a cluster (0=Fix, 1=Round-Robin)
-gpgpu_pipeline_widths        2,1,1,2,1,1,2 # Pipeline widths ID_OC_SP,ID_OC_SFU,ID_OC_MEM,OC_EX_SP,OC_EX_SFU,OC_EX_MEM,EX_WB
-gpgpu_num_sp_units                     2 # Number of SP units (default=1)
-gpgpu_num_sfu_units                    1 # Number of SF units (default=1)
-gpgpu_num_mem_units                    1 # Number if ldst units (default=1) WARNING: not hooked up to anything
-gpgpu_scheduler                      lrr # Scheduler configuration: < lrr | gto | two_level_active > If two_level_active:<num_active_warps>:<inner_prioritization>:<outer_prioritization>For complete list of prioritization values see shader.h enum scheduler_prioritization_typeDefault: gto
-gpgpu_dram_scheduler                    1 # 0 = fifo, 1 = FR-FCFS (defaul)
-gpgpu_dram_partition_queues              8:8:8:8 # i2$:$2d:d2$:$2i
-l2_ideal                               0 # Use a ideal L2 cache that always hit
-gpgpu_cache:dl2     64:128:8,L:B:m:W,A:32:4,4:0,32 # unified banked L2 data cache config  {<nsets>:<bsize>:<assoc>,<rep>:<wr>:<alloc>:<wr_alloc>,<mshr>:<N>:<merge>,<mq>}
-gpgpu_cache:dl2_texture_only                    0 # L2 cache used for texture only
-gpgpu_n_mem                            6 # number of memory modules (e.g. memory controllers) in gpu
-gpgpu_n_sub_partition_per_mchannel                    2 # number of memory subpartition in each memory module
-gpgpu_n_mem_per_ctrlr                    2 # number of memory chips per memory controller
-gpgpu_memlatency_stat                    0 # track and display latency statistics 0x2 enables MC, 0x4 enables queue logs
-gpgpu_frfcfs_dram_sched_queue_size                   16 # 0 = unlimited (default); # entries per chip
-gpgpu_dram_return_queue_size                  114 # 0 = unlimited (default); # entries per chip
-gpgpu_dram_buswidth                    4 # default = 4 bytes (8 bytes per cycle at DDR)
-gpgpu_dram_burst_length                    8 # Burst length of each DRAM request (default = 4 data bus cycle)
-dram_data_command_freq_ratio                    4 # Frequency ratio between DRAM data bus and command bus (default = 2 times, i.e. DDR)
-gpgpu_dram_timing_opt nbk=16:CCD=2:RRD=6:RCD=12:RAS=28:RP=12:RC=40: CL=12:WL=4:CDLR=5:WR=12:nbkgrp=4:CCDL=3:RTPL=2 # DRAM timing parameters = {nbk:tCCD:tRRD:tRCD:tRAS:tRP:tRC:CL:WL:tCDLR:tWR:nbkgrp:tCCDL:tRTPL}
-rop_latency                          120 # ROP queue latency (default 85)
-dram_latency                         100 # DRAM latency (default 30)
-gpgpu_mem_addr_mapping dramid@8;00000000.00000000.00000000.00000000.0000RRRR.RRRRRRRR.BBBCCCCB.CCSSSSSS # mapping memory address to dram model {dramid@<start bit>;<memory address map>}
-gpgpu_mem_addr_test                    0 # run sweep test to check address mapping for aliased address
-gpgpu_mem_address_mask                    1 # 0 = old addressing mask, 1 = new addressing mask, 2 = new add. mask + flipped bank sel and chip sel bits
-gpuwattch_xml_file         gpuwattch.xml # GPUWattch XML file
-power_simulation_enabled                    0 # Turn on power simulator (1=On, 0=Off)
-power_per_cycle_dump                    0 # Dump detailed power output each cycle
-power_trace_enabled                    0 # produce a file for the power trace (1=On, 0=Off)
-power_trace_zlevel                     6 # Compression level of the power trace output log (0=no comp, 9=highest)
-steady_power_levels_enabled                    0 # produce a file for the steady power levels (1=On, 0=Off)
-steady_state_definition                  8:4 # allowed deviation:number of samples
-gpgpu_max_cycle                        0 # terminates gpu simulation early (0 = no limit)
-gpgpu_max_insn                         0 # terminates gpu simulation early (0 = no limit)
-gpgpu_max_cta                          0 # terminates gpu simulation early (0 = no limit)
-gpgpu_runtime_stat             5000000:0 # display runtime statistics such as dram utilization {<freq>:<flag>}
-liveness_message_freq                    1 # Minimum number of seconds between simulation liveness messages (0 = always print)
-gpgpu_flush_l1_cache                    0 # Flush L1 cache at the end of each kernel call
-gpgpu_flush_l2_cache                    0 # Flush L2 cache at the end of each kernel call
-gpgpu_deadlock_detect                    1 # Stop the simulation at deadlock (1=on (default), 0=off)
-gpgpu_ptx_instruction_classification                    0 # if enabled will classify ptx instruction types per kernel (Max 255 kernels now)
-gpgpu_ptx_sim_mode                     0 # Select between Performance (default) or Functional simulation (1)
-gpgpu_clock_domains 575.0:575.0:575.0:750.0 # Clock Domain Frequencies in MhZ {<Core Clock>:<ICNT Clock>:<L2 Clock>:<DRAM Clock>}
-gpgpu_max_concurrent_kernel                    8 # maximum kernels that can run concurrently on GPU
-gpgpu_cflog_interval                    0 # Interval between each snapshot in control flow logger
-visualizer_enabled                     0 # Turn on visualizer output (1=On, 0=Off)
-visualizer_outputfile                 NULL # Specifies the output log file for visualizer
-visualizer_zlevel                      6 # Compression level of the visualizer output log (0=no comp, 9=highest)
-trace_enabled                          0 # Turn on traces
-trace_components                    none # comma seperated list of traces to enable. Complete list found in trace_streams.tup. Default none
-trace_sampling_core                    0 # The core which is printed using CORE_DPRINTF. Default 0
-trace_sampling_memory_partition                   -1 # The memory partition which is printed using MEMPART_DPRINTF. Default -1 (i.e. all)
-enable_ptx_file_line_stats                    0 # Turn on PTX source line statistic profiling. (1 = On)
-ptx_line_stats_filename gpgpu_inst_stats.txt # Output file for PTX source line statistics.
-save_embedded_ptx                      0 # saves ptx files embedded in binary as <n>.ptx
-keep                                   0 # keep intermediate files created by GPGPU-Sim when interfacing with external programs
-gpgpu_ptx_save_converted_ptxplus                    1 # Saved converted ptxplus to a file
-ptx_opcode_latency_int         4,13,4,5,145 # Opcode latencies for integers <ADD,MAX,MUL,MAD,DIV>Default 1,1,19,25,145
-ptx_opcode_latency_fp          4,13,4,5,39 # Opcode latencies for single precision floating points <ADD,MAX,MUL,MAD,DIV>Default 1,1,1,1,30
-ptx_opcode_latency_dp         8,19,8,8,330 # Opcode latencies for double precision floating points <ADD,MAX,MUL,MAD,DIV>Default 8,8,8,8,335
-ptx_opcode_initiation_int            1,2,2,1,8 # Opcode initiation intervals for integers <ADD,MAX,MUL,MAD,DIV>Default 1,1,4,4,32
-ptx_opcode_initiation_fp            1,2,1,1,4 # Opcode initiation intervals for single precision floating points <ADD,MAX,MUL,MAD,DIV>Default 1,1,1,1,5
-ptx_opcode_initiation_dp         8,16,8,8,130 # Opcode initiation intervals for double precision floating points <ADD,MAX,MUL,MAD,DIV>Default 8,8,8,8,130
DRAM Timing Options:
nbk                                    16 # number of banks
CCD                                     2 # column to column delay
RRD                                     6 # minimal delay between activation of rows in different banks
RCD                                    12 # row to column delay
RAS                                    28 # time needed to activate row
RP                                     12 # time needed to precharge (deactivate) row
RC                                     40 # row cycle time
CDLR                                    5 # switching from write to read (changes tWTR)
WR                                     12 # last data-in to row precharge
CL                                     12 # CAS latency
WL                                      4 # Write latency
nbkgrp                                  4 # number of bank groups
CCDL                                    3 # column to column delay between accesses to different bank groups
RTPL                                    2 # read to precharge delay between accesses to different bank groups
Total number of memory sub partition = 12
addr_dec_mask[CHIP]  = 0000000000000000 	high:64 low:0
addr_dec_mask[BK]    = 000000000000e100 	high:16 low:8
addr_dec_mask[ROW]   = 000000000fff0000 	high:28 low:16
addr_dec_mask[COL]   = 0000000000001eff 	high:13 low:0
addr_dec_mask[BURST] = 000000000000003f 	high:6 low:0
sub_partition_id_mask = 0000000000000100
GPGPU-Sim uArch: clock freqs: 575000000.000000:575000000.000000:575000000.000000:750000000.000000
GPGPU-Sim uArch: clock periods: 0.00000000173913043478:0.00000000173913043478:0.00000000173913043478:0.00000000133333333333
*** Initializing Memory Statistics ***
GPGPU-Sim uArch: interconnect node map (shaderID+MemID to icntID)
GPGPU-Sim uArch: Memory nodes ID start from index: 14
GPGPU-Sim uArch:    0   1   2   3   4
GPGPU-Sim uArch:    5   6   7   8   9
GPGPU-Sim uArch:   10  11  12  13  14
GPGPU-Sim uArch:   15  16  17  18  19
GPGPU-Sim uArch:   20  21  22  23  24
GPGPU-Sim uArch:   25
GPGPU-Sim uArch: interconnect node reverse map (icntID to shaderID+MemID)
GPGPU-Sim uArch: Memory nodes start from ID: 14
GPGPU-Sim uArch:    0   1   2   3   4
GPGPU-Sim uArch:    5   6   7   8   9
GPGPU-Sim uArch:   10  11  12  13  14
GPGPU-Sim uArch:   15  16  17  18  19
GPGPU-Sim uArch:   20  21  22  23  24
GPGPU-Sim uArch:   25
91ad0283d1997ea6a5664f4760a64452  /home/vishwesh/Desktop/Register_Sharing_Pbm/rodinia_2.4/cuda/leukocyte/CUDA/leukocyte
GPGPU-Sim uArch: performance model initialization complete.
GPGPU-Sim PTX: __cudaRegisterFatBinary, fat_cubin_handle = 1, filename=find_ellipse_kernel.cu
self exe links to: /home/vishwesh/Desktop/Register_Sharing_Pbm/rodinia_2.4/cuda/leukocyte/CUDA/leukocyte
Running md5sum using "md5sum /home/vishwesh/Desktop/Register_Sharing_Pbm/rodinia_2.4/cuda/leukocyte/CUDA/leukocyte "
Running cuobjdump using "$CUDA_INSTALL_PATH/bin/cuobjdump -ptx -elf -sass /home/vishwesh/Desktop/Register_Sharing_Pbm/rodinia_2.4/cuda/leukocyte/CUDA/leukocyte > _cuobjdump_complete_output_tQidxr"
Parsing file _cuobjdump_complete_output_tQidxr
######### cuobjdump parser ########
## Adding new section ELF
Adding arch: sm_10
Adding identifier: find_ellipse_kernel.cu
## Adding new section PTX
Adding ptx filename: _cuobjdump_1.ptx
Adding arch: sm_10
Adding identifier: find_ellipse_kernel.cu
## Adding new section ELF
Adding arch: sm_10
Adding identifier: track_ellipse_kernel.cu
## Adding new section PTX
Adding ptx filename: _cuobjdump_2.ptx
Adding arch: sm_10
Adding identifier: track_ellipse_kernel.cu
Done parsing!!!
GPGPU-Sim: WARNING: Capability >= 20 are not supported in PTXPlus
	Setting forced_max_capability to 19
GPGPU-Sim PTX: __cudaRegisterFunction _Z13dilate_kerneliiiiPf : hostFun 0x0x409e10, fat_cubin_handle = 1
GPGPU-Sim PTX: converting EMBEDDED .ptx file to ptxplus 
RUNNING cuobjdump_to_ptxplus ...
Parsing .elf file _cuobjdump_1.elf
()






Finished parsing .elf file _cuobjdump_1.elf
Parsing .ptx file _cuobjdump_1.ptx
Finished parsing .ptx file _cuobjdump_1.ptx
Parsing .sass file _cuobjdump_1.sass
Finished parsing .sass file _cuobjdump_1.sass
DONE. 
GPGPU-Sim PTX: calling cuobjdump_to_ptxplus
commandline: $GPGPUSIM_ROOT/build/$GPGPUSIM_CONFIG/cuobjdump_to_ptxplus/cuobjdump_to_ptxplus _cuobjdump_1.ptx _cuobjdump_1.sass _cuobjdump_1.elf _ptxplus_l1PCV1
GPGPU-Sim PTX: DONE converting EMBEDDED .ptx file to ptxplus 
GPGPU-Sim PTX: encountered texture directive t_grad_x.
GPGPU-Sim PTX: encountered texture directive t_grad_y.
GPGPU-Sim PTX: encountered texture directive t_img.
GPGPU-Sim PTX: allocating constant region for "constant0" from 0x100 to 0x3044 (global memory space) 1
GPGPU-Sim PTX: allocating constant region for "constant1_Z13dilate_kerneliiiiPf" from 0x3044 to 0x3048 (global memory space) 2
GPGPU-Sim PTX: allocating constant region for "constant1_Z12GICOV_kerneliPf" from 0x3080 to 0x3098 (global memory space) 3
GPGPU-Sim PTX: allocating constant region for "c_cos_angle" from 0x3100 to 0x3358 (global memory space) 4
GPGPU-Sim PTX: moving "c_cos_angle" from 0x3100 to 0x358 (constant0+258)
GPGPU-Sim PTX: allocating constant region for "c_strel" from 0x3380 to 0x3d44 (global memory space) 5
GPGPU-Sim PTX: moving "c_strel" from 0x3380 to 0x2680 (constant0+2580)
GPGPU-Sim PTX: allocating constant region for "c_tY" from 0x3d80 to 0x4de8 (global memory space) 6
GPGPU-Sim PTX: moving "c_tY" from 0x3d80 to 0x1618 (constant0+1518)
GPGPU-Sim PTX: allocating constant region for "c_sin_angle" from 0x4e00 to 0x5058 (global memory space) 7
GPGPU-Sim PTX: moving "c_sin_angle" from 0x4e00 to 0x100 (constant0+0)
GPGPU-Sim PTX: allocating constant region for "c_tX" from 0x5080 to 0x60e8 (global memory space) 8
GPGPU-Sim PTX: moving "c_tX" from 0x5080 to 0x5b0 (constant0+4b0)
GPGPU-Sim PTX: PTX uses two scalar type intruction with literal operand.
GPGPU-Sim PTX: instruction assembly for function '_Z12GICOV_kerneliPf'...   done.
GPGPU-Sim PTX: finding reconvergence points for '_Z12GICOV_kerneliPf'...
GPGPU-Sim PTX: Finding dominators for '_Z12GICOV_kerneliPf'...
GPGPU-Sim PTX: Finding immediate dominators for '_Z12GICOV_kerneliPf'...
GPGPU-Sim PTX: Finding postdominators for '_Z12GICOV_kerneliPf'...
GPGPU-Sim PTX: Finding immediate postdominators for '_Z12GICOV_kerneliPf'...
GPGPU-Sim PTX: pre-decoding instructions for '_Z12GICOV_kerneliPf'...
GPGPU-Sim PTX: reconvergence points for _Z12GICOV_kerneliPf...
GPGPU-Sim PTX:  1 (potential) branch divergence @  PC=0x170 (_1.ptx:857) @$p0.ne bra l0x00000088;
GPGPU-Sim PTX:    immediate post dominator      @  PC=0x178 (_1.ptx:858) mov.u32 $r0, 0x43160000;
GPGPU-Sim PTX:  2 (potential) branch divergence @  PC=0x230 (_1.ptx:883) @$p0.ne bra l0x00000030;
GPGPU-Sim PTX:    immediate post dominator      @  PC=0x238 (_1.ptx:884) mov.u32 $r0, s[0x0010];
GPGPU-Sim PTX: ... end of reconvergence points for _Z12GICOV_kerneliPf
GPGPU-Sim PTX: ... done pre-decoding instructions for '_Z12GICOV_kerneliPf'.
GPGPU-Sim PTX: instruction assembly for function '_Z13dilate_kerneliiiiPf'...   done.
GPGPU-Sim PTX: finding reconvergence points for '_Z13dilate_kerneliiiiPf'...
GPGPU-Sim PTX: Finding dominators for '_Z13dilate_kerneliiiiPf'...
GPGPU-Sim PTX: Finding immediate dominators for '_Z13dilate_kerneliiiiPf'...
GPGPU-Sim PTX: Finding postdominators for '_Z13dilate_kerneliiiiPf'...
GPGPU-Sim PTX: Finding immediate postdominators for '_Z13dilate_kerneliiiiPf'...
GPGPU-Sim PTX: pre-decoding instructions for '_Z13dilate_kerneliiiiPf'...
GPGPU-Sim PTX: reconvergence points for _Z13dilate_kerneliiiiPf...
GPGPU-Sim PTX:  1 (potential) branch divergence @  PC=0x2c8 (_1.ptx:923) @$p0.ne bra l0x000001f0;
GPGPU-Sim PTX:    immediate post dominator      @  PC=0x4a0 (_1.ptx:983) l0x00000210: mov.u32 $r0, s[0x0014];
GPGPU-Sim PTX:  2 (potential) branch divergence @  PC=0x360 (_1.ptx:943) @$p0.eq bra l0x000001b8;
GPGPU-Sim PTX:    immediate post dominator      @  PC=0x448 (_1.ptx:972) l0x000001b8: nop;
GPGPU-Sim PTX:  3 (potential) branch divergence @  PC=0x370 (_1.ptx:945) @$p0.ne bra l0x000001b8;
GPGPU-Sim PTX:    immediate post dominator      @  PC=0x448 (_1.ptx:972) l0x000001b8: nop;
GPGPU-Sim PTX:  4 (potential) branch divergence @  PC=0x3a8 (_1.ptx:952) @$p0.eq bra l0x00000190;
GPGPU-Sim PTX:    immediate post dominator      @  PC=0x420 (_1.ptx:967) l0x00000190: nop;
GPGPU-Sim PTX:  5 (potential) branch divergence @  PC=0x3d0 (_1.ptx:957) @$p0.eq bra l0x00000190;
GPGPU-Sim PTX:    immediate post dominator      @  PC=0x420 (_1.ptx:967) l0x00000190: nop;
GPGPU-Sim PTX:  6 (potential) branch divergence @  PC=0x440 (_1.ptx:971) @$p0.ne bra l0x00000100;
GPGPU-Sim PTX:    immediate post dominator      @  PC=0x448 (_1.ptx:972) l0x000001b8: nop;
GPGPU-Sim PTX:  7 (potential) branch divergence @  PC=0x468 (_1.ptx:976) @$p0.ne bra l0x000000b8;
GPGPU-Sim PTX:    immediate post dominator      @  PC=0x470 (_1.ptx:977) nop;
GPGPU-Sim PTX:  8 (potential) branch divergence @  PC=0x478 (_1.ptx:978) bra l0x00000210;
GPGPU-Sim PTX:    immediate post dominator      @  PC=0x4a0 (_1.ptx:983) l0x00000210: mov.u32 $r0, s[0x0014];
GPGPU-Sim PTX: ... end of reconvergence points for _Z13dilate_kerneliiiiPf
GPGPU-Sim PTX: ... done pre-decoding instructions for '_Z13dilate_kerneliiiiPf'.
GPGPU-Sim PTX: finished parsing EMBEDDED .ptx file _1.ptx
Adding _cuobjdump_1.ptx with cubin handle 1
GPGPU-Sim PTX: extracting embedded .ptx to temporary file "_ptx_cslimC"
Running: cat _ptx_cslimC | sed 's/.version 1.5/.version 1.4/' | sed 's/, texmode_independent//' | sed 's/\(\.extern \.const\[1\] .b8 \w\+\)\[\]/\1\[1\]/' | sed 's/const\[.\]/const\[0\]/g' > _ptx2_189YMc
GPGPU-Sim PTX: generating ptxinfo using "$CUDA_INSTALL_PATH/bin/ptxas --gpu-name=sm_20 -v _ptx2_189YMc --output-file  /dev/null 2> _ptx_cslimCinfo"
GPGPU-Sim PTX: Kernel '_Z12GICOV_kerneliPf' : regs=24, lmem=0, smem=0, cmem=12156
GPGPU-Sim PTX: Kernel '_Z13dilate_kerneliiiiPf' : regs=12, lmem=0, smem=0, cmem=12156
GPGPU-Sim PTX: removing ptxinfo using "rm -f _ptx_cslimC _ptx2_189YMc _ptx_cslimCinfo"
GPGPU-Sim PTX: loading globals with explicit initializers... 
GPGPU-Sim PTX: finished loading globals (0 bytes total).
GPGPU-Sim PTX: loading constants with explicit initializers...  done.
GPGPU-Sim PTX: __cudaRegisterFunction _Z12GICOV_kerneliPf : hostFun 0x0x40a310, fat_cubin_handle = 1
GPGPU-Sim PTX: __cudaRegisterVar: hostVar = 0x632820; deviceAddress = c_sin_angle; deviceName = c_sin_angle
GPGPU-Sim PTX: __cudaRegisterVar: Registering const memory space of 600 bytes
GPGPU-Sim PTX registering constant c_sin_angle (600 bytes) to name mapping
GPGPU-Sim PTX: __cudaRegisterVar: hostVar = 0x632a80; deviceAddress = c_cos_angle; deviceName = c_cos_angle
GPGPU-Sim PTX: __cudaRegisterVar: Registering const memory space of 600 bytes
GPGPU-Sim PTX registering constant c_cos_angle (600 bytes) to name mapping
GPGPU-Sim PTX: __cudaRegisterVar: hostVar = 0x632ce0; deviceAddress = c_tX; deviceName = c_tX
GPGPU-Sim PTX: __cudaRegisterVar: Registering const memory space of 4200 bytes
GPGPU-Sim PTX registering constant c_tX (4200 bytes) to name mapping
GPGPU-Sim PTX: __cudaRegisterVar: hostVar = 0x633d60; deviceAddress = c_tY; deviceName = c_tY
GPGPU-Sim PTX: __cudaRegisterVar: Registering const memory space of 4200 bytes
GPGPU-Sim PTX registering constant c_tY (4200 bytes) to name mapping
GPGPU-Sim PTX: in __cudaRegisterTexture:
GPGPU-Sim PTX:   int dim = 1
GPGPU-Sim PTX:   int norm = 0
GPGPU-Sim PTX:   int ext = 0
GPGPU-Sim PTX:   Execution warning: Not finished implementing "void __cudaRegisterTexture(void**, const textureReference*, const void**, const char*, int, int, int)"
GPGPU-Sim PTX: in __cudaRegisterTexture:
GPGPU-Sim PTX:   int dim = 1
GPGPU-Sim PTX:   int norm = 0
GPGPU-Sim PTX:   int ext = 0
GPGPU-Sim PTX:   Execution warning: Not finished implementing "void __cudaRegisterTexture(void**, const textureReference*, const void**, const char*, int, int, int)"
GPGPU-Sim PTX: __cudaRegisterVar: hostVar = 0x634de0; deviceAddress = c_strel; deviceName = c_strel
GPGPU-Sim PTX: __cudaRegisterVar: Registering const memory space of 2500 bytes
GPGPU-Sim PTX registering constant c_strel (2500 bytes) to name mapping
GPGPU-Sim PTX: in __cudaRegisterTexture:
GPGPU-Sim PTX:   int dim = 1
GPGPU-Sim PTX:   int norm = 0
GPGPU-Sim PTX:   int ext = 0
GPGPU-Sim PTX:   Execution warning: Not finished implementing "void __cudaRegisterTexture(void**, const textureReference*, const void**, const char*, int, int, int)"
GPGPU-Sim PTX: __cudaRegisterFatBinary, fat_cubin_handle = 2, filename=track_ellipse_kernel.cu
GPGPU-Sim PTX: __cudaRegisterFunction _Z12IMGVF_kernelPPfS0_PiS1_fffif : hostFun 0x0x40cee0, fat_cubin_handle = 2
GPGPU-Sim PTX: converting EMBEDDED .ptx file to ptxplus 
RUNNING cuobjdump_to_ptxplus ...
Parsing .elf file _cuobjdump_2.elf
()


Finished parsing .elf file _cuobjdump_2.elf
Parsing .ptx file _cuobjdump_2.ptx
Finished parsing .ptx file _cuobjdump_2.ptx
Parsing .sass file _cuobjdump_2.sass
Finished parsing .sass file _cuobjdump_2.sass
DONE. 
GPGPU-Sim PTX: calling cuobjdump_to_ptxplus
commandline: $GPGPUSIM_ROOT/build/$GPGPUSIM_CONFIG/cuobjdump_to_ptxplus/cuobjdump_to_ptxplus _cuobjdump_2.ptx _cuobjdump_2.sass _cuobjdump_2.elf _ptxplus_8pFzhN
GPGPU-Sim PTX: DONE converting EMBEDDED .ptx file to ptxplus 
GPGPU-Sim PTX: allocating constant region for "constant1_Z12IMGVF_kernelPPfS0_PiS1_fffif" from 0x6100 to 0x6144 (global memory space) 9
GPGPU-Sim PTX: instruction assembly for function '_Z12IMGVF_kernelPPfS0_PiS1_fffif'...   done.
GPGPU-Sim PTX: finding reconvergence points for '_Z12IMGVF_kernelPPfS0_PiS1_fffif'...
GPGPU-Sim PTX: Warning detected predicated return/exit.
GPGPU-Sim PTX: Finding dominators for '_Z12IMGVF_kernelPPfS0_PiS1_fffif'...
GPGPU-Sim PTX: Finding immediate dominators for '_Z12IMGVF_kernelPPfS0_PiS1_fffif'...
GPGPU-Sim PTX: Finding postdominators for '_Z12IMGVF_kernelPPfS0_PiS1_fffif'...
GPGPU-Sim PTX: Finding immediate postdominators for '_Z12IMGVF_kernelPPfS0_PiS1_fffif'...
GPGPU-Sim PTX: pre-decoding instructions for '_Z12IMGVF_kernelPPfS0_PiS1_fffif'...
GPGPU-Sim PTX: reconvergence points for _Z12IMGVF_kernelPPfS0_PiS1_fffif...
GPGPU-Sim PTX:  1 (potential) branch divergence @  PC=0x820 (_2.ptx:73) @$p0.eq bra l0x00000228;
GPGPU-Sim PTX:    immediate post dominator      @  PC=0x950 (_2.ptx:115) l0x00000228: bar.sync 0x00000000;
GPGPU-Sim PTX:  2 (potential) branch divergence @  PC=0x888 (_2.ptx:88) @$p0.ne bra l0x000001c8;
GPGPU-Sim PTX:    immediate post dominator      @  PC=0x8f0 (_2.ptx:102) l0x000001c8: nop;
GPGPU-Sim PTX:  3 (potential) branch divergence @  PC=0x910 (_2.ptx:106) @$p0.ne bra l0x00000138;
GPGPU-Sim PTX:    immediate post dominator      @  PC=0x918 (_2.ptx:107) shl.u32 $r0, $r17, 0x00000008;
GPGPU-Sim PTX:  4 (potential) branch divergence @  PC=0x980 (_2.ptx:121) @$p0.ne bra l0x00000e10;
GPGPU-Sim PTX:    immediate post dominator      @  PC=0x1538 (_2.ptx:522) l0x00000e10: mov.pred $p2, $r23;
GPGPU-Sim PTX:  5 (potential) branch divergence @  PC=0x990 (_2.ptx:123) @$p0.ne bra l0x00000e10;
GPGPU-Sim PTX:    immediate post dominator      @  PC=0x1538 (_2.ptx:522) l0x00000e10: mov.pred $p2, $r23;
GPGPU-Sim PTX:  6 (potential) branch divergence @  PC=0xa10 (_2.ptx:141) @$p2.eq bra l0x00000cb0;
GPGPU-Sim PTX:    immediate post dominator      @  PC=0x13e0 (_2.ptx:478) l0x00000cb8: mov.u32 s[$ofs1+0x0000], $r28;
GPGPU-Sim PTX:  7 (potential) branch divergence @  PC=0xad0 (_2.ptx:169) @$p3.eq bra l0x00000bc0;
GPGPU-Sim PTX:    immediate post dominator      @  PC=0x12f8 (_2.ptx:449) l0x00000bd0: nop;
GPGPU-Sim PTX:  8 (potential) branch divergence @  PC=0x12e0 (_2.ptx:446) bra l0x00000bd0;
GPGPU-Sim PTX:    immediate post dominator      @  PC=0x12f8 (_2.ptx:449) l0x00000bd0: nop;
GPGPU-Sim PTX:  9 (potential) branch divergence @  PC=0x1310 (_2.ptx:452) @$p3.ne bra l0x00000c18;
GPGPU-Sim PTX:    immediate post dominator      @  PC=0x1340 (_2.ptx:458) l0x00000c18: nop;
GPGPU-Sim PTX: 10 (potential) branch divergence @  PC=0x1358 (_2.ptx:461) @$p3.ne bra l0x00000c48;
GPGPU-Sim PTX:    immediate post dominator      @  PC=0x1388 (_2.ptx:467) l0x00000c60: nop;
GPGPU-Sim PTX: 11 (potential) branch divergence @  PC=0x1368 (_2.ptx:463) bra l0x00000c60;
GPGPU-Sim PTX:    immediate post dominator      @  PC=0x1388 (_2.ptx:467) l0x00000c60: nop;
GPGPU-Sim PTX: 12 (potential) branch divergence @  PC=0x13c0 (_2.ptx:474) @$p2.ne bra l0x00000350;
GPGPU-Sim PTX:    immediate post dominator      @  PC=0x13c8 (_2.ptx:475) nop;
GPGPU-Sim PTX: 13 (potential) branch divergence @  PC=0x13d0 (_2.ptx:476) bra l0x00000cb8;
GPGPU-Sim PTX:    immediate post dominator      @  PC=0x13e0 (_2.ptx:478) l0x00000cb8: mov.u32 s[$ofs1+0x0000], $r28;
GPGPU-Sim PTX: 14 (potential) branch divergence @  PC=0x1498 (_2.ptx:501) @$p2.ne bra l0x00000d08;
GPGPU-Sim PTX:    immediate post dominator      @  PC=0x14a0 (_2.ptx:502) ssy 0x00000dd0;
GPGPU-Sim PTX: 15 (potential) branch divergence @  PC=0x14a8 (_2.ptx:503) @$p1.eq bra l0x00000dd0;
GPGPU-Sim PTX:    immediate post dominator      @  PC=0x14f8 (_2.ptx:514) l0x00000dd0: nop;
GPGPU-Sim PTX: 16 (potential) branch divergence @  PC=0x1520 (_2.ptx:519) @$p2.ne bra l0x00000e10;
GPGPU-Sim PTX:    immediate post dominator      @  PC=0x1538 (_2.ptx:522) l0x00000e10: mov.pred $p2, $r23;
GPGPU-Sim PTX: 17 (potential) branch divergence @  PC=0x1530 (_2.ptx:521) @$p2.ne bra l0x000002d8;
GPGPU-Sim PTX:    immediate post dominator      @  PC=0x1538 (_2.ptx:522) l0x00000e10: mov.pred $p2, $r23;
GPGPU-Sim PTX: 18 (potential) branch divergence @  PC=0x1598 (_2.ptx:535) @$p0.ne bra l0x00000ed8;
GPGPU-Sim PTX:    immediate post dominator      @  PC=0x1600 (_2.ptx:549) l0x00000ed8: nop;
GPGPU-Sim PTX: 19 (potential) branch divergence @  PC=0x1618 (_2.ptx:552) @$p0.ne bra l0x00000e48;
GPGPU-Sim PTX:    immediate post dominator      @  PC=0x1620 (_2.ptx:553) retp;
GPGPU-Sim PTX: ... end of reconvergence points for _Z12IMGVF_kernelPPfS0_PiS1_fffif
GPGPU-Sim PTX: ... done pre-decoding instructions for '_Z12IMGVF_kernelPPfS0_PiS1_fffif'.
GPGPU-Sim PTX: finished parsing EMBEDDED .ptx file _2.ptx
Adding _cuobjdump_2.ptx with cubin handle 2
GPGPU-Sim PTX: extracting embedded .ptx to temporary file "_ptx_JFFDPn"
Running: cat _ptx_JFFDPn | sed 's/.version 1.5/.version 1.4/' | sed 's/, texmode_independent//' | sed 's/\(\.extern \.const\[1\] .b8 \w\+\)\[\]/\1\[1\]/' | sed 's/const\[.\]/const\[0\]/g' > _ptx2_6q8InY
GPGPU-Sim PTX: generating ptxinfo using "$CUDA_INSTALL_PATH/bin/ptxas --gpu-name=sm_20 -v _ptx2_6q8InY --output-file  /dev/null 2> _ptx_JFFDPninfo"
GPGPU-Sim PTX: Kernel '_Z12IMGVF_kernelPPfS0_PiS1_fffif' : regs=50, lmem=0, smem=14568, cmem=144
GPGPU-Sim PTX: removing ptxinfo using "rm -f _ptx_JFFDPn _ptx2_6q8InY _ptx_JFFDPninfo"
GPGPU-Sim PTX: loading globals with explicit initializers... 
GPGPU-Sim PTX: finished loading globals (0 bytes total).
GPGPU-Sim PTX: loading constants with explicit initializers...  done.
GPGPU-Sim PTX: cudaMemcpyToSymbol: symbol = 0x632820
GPGPU-Sim PTX: starting gpgpu_ptx_sim_memcpy_symbol with hostVar 0x0x632820
GPGPU-Sim PTX: gpgpu_ptx_sim_memcpy_symbol: Found PTX symbol w/ hostVar=0x632820
GPGPU-Sim PTX: gpgpu_ptx_sim_memcpy_symbol: copying const memory 600 bytes  to  symbol c_sin_angle+0 @0x100 ...
GPGPU-Sim PTX: cudaMemcpyToSymbol: symbol = 0x632a80
GPGPU-Sim PTX: starting gpgpu_ptx_sim_memcpy_symbol with hostVar 0x0x632a80
GPGPU-Sim PTX: gpgpu_ptx_sim_memcpy_symbol: Found PTX symbol w/ hostVar=0x632a80
GPGPU-Sim PTX: gpgpu_ptx_sim_memcpy_symbol: copying const memory 600 bytes  to  symbol c_cos_angle+0 @0x358 ...
GPGPU-Sim PTX: cudaMemcpyToSymbol: symbol = 0x632ce0
GPGPU-Sim PTX: starting gpgpu_ptx_sim_memcpy_symbol with hostVar 0x0x632ce0
GPGPU-Sim PTX: gpgpu_ptx_sim_memcpy_symbol: Found PTX symbol w/ hostVar=0x632ce0
GPGPU-Sim PTX: gpgpu_ptx_sim_memcpy_symbol: copying const memory 4200 bytes  to  symbol c_tX+0 @0x5b0 ...
GPGPU-Sim PTX: cudaMemcpyToSymbol: symbol = 0x633d60
GPGPU-Sim PTX: starting gpgpu_ptx_sim_memcpy_symbol with hostVar 0x0x633d60
GPGPU-Sim PTX: gpgpu_ptx_sim_memcpy_symbol: Found PTX symbol w/ hostVar=0x633d60
GPGPU-Sim PTX: gpgpu_ptx_sim_memcpy_symbol: copying const memory 4200 bytes  to  symbol c_tY+0 @0x1618 ...
GPGPU-Sim PTX: cudaMemcpyToSymbol: symbol = 0x634de0
GPGPU-Sim PTX: starting gpgpu_ptx_sim_memcpy_symbol with hostVar 0x0x634de0
GPGPU-Sim PTX: gpgpu_ptx_sim_memcpy_symbol: Found PTX symbol w/ hostVar=0x634de0
GPGPU-Sim PTX: gpgpu_ptx_sim_memcpy_symbol: copying const memory 2500 bytes  to  symbol c_strel+0 @0x2680 ...
Detecting cells in frame 0
GPGPU-Sim PTX: in cudaBindTexture: sizeof(struct textureReference) = 104
GPGPU-Sim PTX:   size = 560640
GPGPU-Sim PTX:   texref = 0x6326a0, array = 0x175ee30
GPGPU-Sim PTX:   devPtr32 = 80000000
GPGPU-Sim PTX:   Name corresponding to textureReference: t_grad_x
GPGPU-Sim PTX:   ChannelFormatDesc: x=32, y=0, z=0, w=0
GPGPU-Sim PTX:   Texture Normalized? = 0
GPGPU-Sim PTX:   texel size = 4
GPGPU-Sim PTX:   texture cache linesize = 128
GPGPU-Sim PTX:   Tx = 8; Ty = 4, Tx_numbits = 3, Ty_numbits = 2
GPGPU-Sim PTX:   Texel size = 4 bytes; texel_size_numbits = 2
GPGPU-Sim PTX:   Binding texture to array starting at devPtr32 = 0x80000000
GPGPU-Sim PTX:   Texel size = 4 bytes
GPGPU-Sim PTX: devPtr = 0xffffffff80000000
GPGPU-Sim PTX: in cudaBindTexture: sizeof(struct textureReference) = 104
GPGPU-Sim PTX:   size = 560640
GPGPU-Sim PTX:   texref = 0x632720, array = 0x1778760
GPGPU-Sim PTX:   devPtr32 = 80088e00
GPGPU-Sim PTX:   Name corresponding to textureReference: t_grad_y
GPGPU-Sim PTX:   ChannelFormatDesc: x=32, y=0, z=0, w=0
GPGPU-Sim PTX:   Texture Normalized? = 0
GPGPU-Sim PTX:   texel size = 4
GPGPU-Sim PTX:   texture cache linesize = 128
GPGPU-Sim PTX:   Tx = 8; Ty = 4, Tx_numbits = 3, Ty_numbits = 2
GPGPU-Sim PTX:   Texel size = 4 bytes; texel_size_numbits = 2
GPGPU-Sim PTX:   Binding texture to array starting at devPtr32 = 0x80088e00
GPGPU-Sim PTX:   Texel size = 4 bytes
GPGPU-Sim PTX: devPtr = 0xffffffff80088e00

GPGPU-Sim PTX: cudaLaunch for 0x0x40a310 (mode=performance simulation) on stream 0
GPGPU-Sim PTX: pushing kernel '_Z12GICOV_kerneliPf' to stream 0, gridDim= (596,1,1) blockDim = (175,1,1) 
kernel '_Z12GICOV_kerneliPf' transfer to GPU hardware scheduler
GPGPU-Sim uArch: Shader 1 bind to kernel 1 '_Z12GICOV_kerneliPf'
GPGPU-Sim uArch: CTA/core = 7, limited by: regs
GPGPU-Sim uArch: core:  1, cta: 0 initialized @(1,0)
GPGPU-Sim uArch: Shader 2 bind to kernel 1 '_Z12GICOV_kerneliPf'
GPGPU-Sim uArch: core:  2, cta: 0 initialized @(1,0)
GPGPU-Sim uArch: Shader 3 bind to kernel 1 '_Z12GICOV_kerneliPf'
GPGPU-Sim uArch: core:  3, cta: 0 initialized @(1,0)
GPGPU-Sim uArch: Shader 4 bind to kernel 1 '_Z12GICOV_kerneliPf'
GPGPU-Sim uArch: core:  4, cta: 0 initialized @(1,0)
GPGPU-Sim uArch: Shader 5 bind to kernel 1 '_Z12GICOV_kerneliPf'
GPGPU-Sim uArch: core:  5, cta: 0 initialized @(1,0)
GPGPU-Sim uArch: Shader 6 bind to kernel 1 '_Z12GICOV_kerneliPf'
GPGPU-Sim uArch: core:  6, cta: 0 initialized @(1,0)
GPGPU-Sim uArch: Shader 7 bind to kernel 1 '_Z12GICOV_kerneliPf'
GPGPU-Sim uArch: core:  7, cta: 0 initialized @(1,0)
GPGPU-Sim uArch: Shader 8 bind to kernel 1 '_Z12GICOV_kerneliPf'
GPGPU-Sim uArch: core:  8, cta: 0 initialized @(1,0)
GPGPU-Sim uArch: Shader 9 bind to kernel 1 '_Z12GICOV_kerneliPf'
GPGPU-Sim uArch: core:  9, cta: 0 initialized @(1,0)
GPGPU-Sim uArch: Shader 10 bind to kernel 1 '_Z12GICOV_kerneliPf'
GPGPU-Sim uArch: core: 10, cta: 0 initialized @(1,0)
GPGPU-Sim uArch: Shader 11 bind to kernel 1 '_Z12GICOV_kerneliPf'
GPGPU-Sim uArch: core: 11, cta: 0 initialized @(1,0)
GPGPU-Sim uArch: Shader 12 bind to kernel 1 '_Z12GICOV_kerneliPf'
GPGPU-Sim uArch: core: 12, cta: 0 initialized @(1,0)
GPGPU-Sim uArch: Shader 13 bind to kernel 1 '_Z12GICOV_kerneliPf'
GPGPU-Sim uArch: core: 13, cta: 0 initialized @(1,0)
GPGPU-Sim uArch: Shader 0 bind to kernel 1 '_Z12GICOV_kerneliPf'
GPGPU-Sim uArch: core:  0, cta: 0 initialized @(1,0)
GPGPU-Sim uArch: core:  1, cta: 1 initialized @(2,0)
GPGPU-Sim uArch: core:  2, cta: 1 initialized @(2,0)
GPGPU-Sim uArch: core:  3, cta: 1 initialized @(2,0)
GPGPU-Sim uArch: core:  4, cta: 1 initialized @(2,0)
GPGPU-Sim uArch: core:  5, cta: 1 initialized @(2,0)
GPGPU-Sim uArch: core:  6, cta: 1 initialized @(2,0)
GPGPU-Sim uArch: core:  7, cta: 1 initialized @(2,0)
GPGPU-Sim uArch: core:  8, cta: 1 initialized @(2,0)
GPGPU-Sim uArch: core:  9, cta: 1 initialized @(2,0)
GPGPU-Sim uArch: core: 10, cta: 1 initialized @(2,0)
GPGPU-Sim uArch: core: 11, cta: 1 initialized @(2,0)
GPGPU-Sim uArch: core: 12, cta: 1 initialized @(2,0)
GPGPU-Sim uArch: core: 13, cta: 1 initialized @(2,0)
GPGPU-Sim uArch: core:  0, cta: 1 initialized @(2,0)
GPGPU-Sim uArch: core:  1, cta: 2 initialized @(3,0)
GPGPU-Sim uArch: core:  2, cta: 2 initialized @(3,0)
GPGPU-Sim uArch: core:  3, cta: 2 initialized @(3,0)
GPGPU-Sim uArch: core:  4, cta: 2 initialized @(3,0)
GPGPU-Sim uArch: core:  5, cta: 2 initialized @(3,0)
GPGPU-Sim uArch: core:  6, cta: 2 initialized @(3,0)
GPGPU-Sim uArch: core:  7, cta: 2 initialized @(3,0)
GPGPU-Sim uArch: core:  8, cta: 2 initialized @(3,0)
GPGPU-Sim uArch: core:  9, cta: 2 initialized @(3,0)
GPGPU-Sim uArch: core: 10, cta: 2 initialized @(3,0)
GPGPU-Sim uArch: core: 11, cta: 2 initialized @(3,0)
GPGPU-Sim uArch: core: 12, cta: 2 initialized @(3,0)
GPGPU-Sim uArch: core: 13, cta: 2 initialized @(3,0)
GPGPU-Sim uArch: core:  0, cta: 2 initialized @(3,0)
GPGPU-Sim uArch: core:  1, cta: 3 initialized @(4,0)
GPGPU-Sim uArch: core:  2, cta: 3 initialized @(4,0)
GPGPU-Sim uArch: core:  3, cta: 3 initialized @(4,0)
GPGPU-Sim uArch: core:  4, cta: 3 initialized @(4,0)
GPGPU-Sim uArch: core:  5, cta: 3 initialized @(4,0)
GPGPU-Sim uArch: core:  6, cta: 3 initialized @(4,0)
GPGPU-Sim uArch: core:  7, cta: 3 initialized @(4,0)
GPGPU-Sim uArch: core:  8, cta: 3 initialized @(4,0)
GPGPU-Sim uArch: core:  9, cta: 3 initialized @(4,0)
GPGPU-Sim uArch: core: 10, cta: 3 initialized @(4,0)
GPGPU-Sim uArch: core: 11, cta: 3 initialized @(4,0)
GPGPU-Sim uArch: core: 12, cta: 3 initialized @(4,0)
GPGPU-Sim uArch: core: 13, cta: 3 initialized @(4,0)
GPGPU-Sim uArch: core:  0, cta: 3 initialized @(4,0)
GPGPU-Sim uArch: core:  1, cta: 4 initialized @(5,0)
GPGPU-Sim uArch: core:  2, cta: 4 initialized @(5,0)
GPGPU-Sim uArch: core:  3, cta: 4 initialized @(5,0)
GPGPU-Sim uArch: core:  4, cta: 4 initialized @(5,0)
GPGPU-Sim uArch: core:  5, cta: 4 initialized @(5,0)
GPGPU-Sim uArch: core:  6, cta: 4 initialized @(5,0)
GPGPU-Sim uArch: core:  7, cta: 4 initialized @(5,0)
GPGPU-Sim uArch: core:  8, cta: 4 initialized @(5,0)
GPGPU-Sim uArch: core:  9, cta: 4 initialized @(5,0)
GPGPU-Sim uArch: core: 10, cta: 4 initialized @(5,0)
GPGPU-Sim uArch: core: 11, cta: 4 initialized @(5,0)
GPGPU-Sim uArch: core: 12, cta: 4 initialized @(5,0)
GPGPU-Sim uArch: core: 13, cta: 4 initialized @(5,0)
GPGPU-Sim uArch: core:  0, cta: 4 initialized @(5,0)
GPGPU-Sim uArch: core:  1, cta: 5 initialized @(6,0)
GPGPU-Sim uArch: core:  2, cta: 5 initialized @(6,0)
GPGPU-Sim uArch: core:  3, cta: 5 initialized @(6,0)
GPGPU-Sim uArch: core:  4, cta: 5 initialized @(6,0)
GPGPU-Sim uArch: core:  5, cta: 5 initialized @(6,0)
GPGPU-Sim uArch: core:  6, cta: 5 initialized @(6,0)
GPGPU-Sim uArch: core:  7, cta: 5 initialized @(6,0)
GPGPU-Sim uArch: core:  8, cta: 5 initialized @(6,0)
GPGPU-Sim uArch: core:  9, cta: 5 initialized @(6,0)
GPGPU-Sim uArch: core: 10, cta: 5 initialized @(6,0)
GPGPU-Sim uArch: core: 11, cta: 5 initialized @(6,0)
GPGPU-Sim uArch: core: 12, cta: 5 initialized @(6,0)
GPGPU-Sim uArch: core: 13, cta: 5 initialized @(6,0)
GPGPU-Sim uArch: core:  0, cta: 5 initialized @(6,0)
GPGPU-Sim uArch: core:  1, cta: 6 initialized @(7,0)
GPGPU-Sim uArch: core:  2, cta: 6 initialized @(7,0)
GPGPU-Sim uArch: core:  3, cta: 6 initialized @(7,0)
GPGPU-Sim uArch: core:  4, cta: 6 initialized @(7,0)
GPGPU-Sim uArch: core:  5, cta: 6 initialized @(7,0)
GPGPU-Sim uArch: core:  6, cta: 6 initialized @(7,0)
GPGPU-Sim uArch: core:  7, cta: 6 initialized @(7,0)
GPGPU-Sim uArch: core:  8, cta: 6 initialized @(7,0)
GPGPU-Sim uArch: core:  9, cta: 6 initialized @(7,0)
GPGPU-Sim uArch: core: 10, cta: 6 initialized @(7,0)
GPGPU-Sim uArch: core: 11, cta: 6 initialized @(7,0)
GPGPU-Sim uArch: core: 12, cta: 6 initialized @(7,0)
GPGPU-Sim uArch: core: 13, cta: 6 initialized @(7,0)
GPGPU-Sim uArch: core:  0, cta: 6 initialized @(7,0)
GPGPU-Sim PTX: WARNING (_1.ptx:809) ** reading undefined register '$r124' (cuid:0). Setting to 0X00000000. This is okay if you are simulating the native ISA
