

        *** GPGPU-Sim Simulator Version 3.2.2  [build 17315] ***


GPGPU-Sim PTX: simulation mode 0 (can change with PTX_SIM_MODE_FUNC environment variable:
               1=functional simulation only, 0=detailed performance simulator)
GPGPU-Sim: Configuration options:

-network_mode                           1 # Interconnection network mode
-inter_config_file   config_fermi_islip.icnt # Interconnection network config file
-gpgpu_ptx_use_cuobjdump                    1 # Use cuobjdump to extract ptx and sass from binaries
-gpgpu_experimental_lib_support                    0 # Try to extract code from cuda libraries [Broken because of unknown cudaGetExportTable]
-gpgpu_ptx_convert_to_ptxplus                    1 # Convert SASS (native ISA) to ptxplus and run ptxplus
-gpgpu_ptx_force_max_capability                   20 # Force maximum compute capability
-gpgpu_ptx_inst_debug_to_file                    0 # Dump executed instructions' debug information to file
-gpgpu_ptx_inst_debug_file       inst_debug.txt # Executed instructions' debug output file
-gpgpu_ptx_inst_debug_thread_uid                    1 # Thread UID for executed instructions' debug output
-gpgpu_simd_model                       1 # 1 = post-dominator
-gpgpu_shader_core_pipeline              3072:32 # shader core pipeline config, i.e., {<nthread>:<warpsize>}
-gpgpu_tex_cache:l1  4:128:24,L:R:m:N,F:128:4,128:2 # per-shader L1 texture cache  (READ-ONLY) config  {<nsets>:<bsize>:<assoc>,<rep>:<wr>:<alloc>:<wr_alloc>,<mshr>:<N>:<merge>,<mq>:<rf>}
-gpgpu_const_cache:l1 64:64:2,L:R:f:N,A:2:32,4 # per-shader L1 constant memory cache  (READ-ONLY) config  {<nsets>:<bsize>:<assoc>,<rep>:<wr>:<alloc>:<wr_alloc>,<mshr>:<N>:<merge>,<mq>} 
-gpgpu_cache:il1     4:128:4,L:R:f:N,A:2:32,4 # shader L1 instruction cache config  {<nsets>:<bsize>:<assoc>,<rep>:<wr>:<alloc>:<wr_alloc>,<mshr>:<N>:<merge>,<mq>} 
-gpgpu_cache:dl1     32:128:4,L:L:m:N,A:32:8,8 # per-shader L1 data cache config  {<nsets>:<bsize>:<assoc>,<rep>:<wr>:<alloc>:<wr_alloc>,<mshr>:<N>:<merge>,<mq> | none}
-gpgpu_cache:dl1PrefL1                 none # per-shader L1 data cache config  {<nsets>:<bsize>:<assoc>,<rep>:<wr>:<alloc>:<wr_alloc>,<mshr>:<N>:<merge>,<mq> | none}
-gpgpu_cache:dl1PreShared                 none # per-shader L1 data cache config  {<nsets>:<bsize>:<assoc>,<rep>:<wr>:<alloc>:<wr_alloc>,<mshr>:<N>:<merge>,<mq> | none}
-gmem_skip_L1D                          0 # global memory access skip L1D cache (implements -Xptxas -dlcm=cg, default=no skip)
-gpgpu_perfect_mem                      0 # enable perfect memory mode (no cache miss)
-n_regfile_gating_group                    4 # group of lanes that should be read/written together)
-gpgpu_clock_gated_reg_file                    0 # enable clock gated reg file for power calculations
-gpgpu_clock_gated_lanes                    0 # enable clock gated lanes for power calculations
-gpgpu_shader_registers                32768 # Number of registers per shader core. Limits number of concurrent CTAs. (default 8192)
-gpgpu_shader_cta                      16 # Maximum number of concurrent CTAs in shader (default 8)
-gpgpu_n_clusters                      14 # number of processing clusters
-gpgpu_n_cores_per_cluster                    1 # number of simd cores per cluster
-gpgpu_n_cluster_ejection_buffer_size                    8 # number of packets in ejection buffer
-gpgpu_n_ldst_response_buffer_size                    2 # number of response packets in ld/st unit ejection buffer
-gpgpu_shmem_size                   16384 # Size of shared memory per shader core (default 16kB)
-gpgpu_shmem_size                   49152 # Size of shared memory per shader core (default 16kB)
-gpgpu_shmem_size_PrefL1                16384 # Size of shared memory per shader core (default 16kB)
-gpgpu_shmem_size_PrefShared                16384 # Size of shared memory per shader core (default 16kB)
-gpgpu_shmem_num_banks                   32 # Number of banks in the shared memory in each shader core (default 16)
-gpgpu_shmem_limited_broadcast                    0 # Limit shared memory to do one broadcast per cycle (default on)
-gpgpu_shmem_warp_parts                    1 # Number of portions a warp is divided into for shared memory bank conflict check 
-gpgpu_warpdistro_shader                   -1 # Specify which shader core to collect the warp size distribution from
-gpgpu_warp_issue_shader                    0 # Specify which shader core to collect the warp issue distribution from
-gpgpu_local_mem_map                    1 # Mapping from local memory space address to simulated GPU physical address space (default = enabled)
-gpgpu_num_reg_banks                   16 # Number of register banks (default = 8)
-gpgpu_reg_bank_use_warp_id                    0 # Use warp ID in mapping registers to banks (default = off)
-gpgpu_operand_collector_num_units_sp                    6 # number of collector units (default = 4)
-gpgpu_operand_collector_num_units_sfu                    8 # number of collector units (default = 4)
-gpgpu_operand_collector_num_units_mem                    2 # number of collector units (default = 2)
-gpgpu_operand_collector_num_units_gen                    0 # number of collector units (default = 0)
-gpgpu_operand_collector_num_in_ports_sp                    2 # number of collector unit in ports (default = 1)
-gpgpu_operand_collector_num_in_ports_sfu                    1 # number of collector unit in ports (default = 1)
-gpgpu_operand_collector_num_in_ports_mem                    1 # number of collector unit in ports (default = 1)
-gpgpu_operand_collector_num_in_ports_gen                    0 # number of collector unit in ports (default = 0)
-gpgpu_operand_collector_num_out_ports_sp                    2 # number of collector unit in ports (default = 1)
-gpgpu_operand_collector_num_out_ports_sfu                    1 # number of collector unit in ports (default = 1)
-gpgpu_operand_collector_num_out_ports_mem                    1 # number of collector unit in ports (default = 1)
-gpgpu_operand_collector_num_out_ports_gen                    0 # number of collector unit in ports (default = 0)
-gpgpu_coalesce_arch                   13 # Coalescing arch (default = 13, anything else is off for now)
-gpgpu_num_sched_per_core                    2 # Number of warp schedulers per core
-gpgpu_max_insn_issue_per_warp                    1 # Max number of instructions that can be issued per warp in one cycle by scheduler
-gpgpu_simt_core_sim_order                    1 # Select the simulation order of cores in a cluster (0=Fix, 1=Round-Robin)
-gpgpu_pipeline_widths        2,1,1,2,1,1,2 # Pipeline widths ID_OC_SP,ID_OC_SFU,ID_OC_MEM,OC_EX_SP,OC_EX_SFU,OC_EX_MEM,EX_WB
-gpgpu_num_sp_units                     2 # Number of SP units (default=1)
-gpgpu_num_sfu_units                    1 # Number of SF units (default=1)
-gpgpu_num_mem_units                    1 # Number if ldst units (default=1) WARNING: not hooked up to anything
-gpgpu_scheduler                      owf # Scheduler configuration: < lrr | gto | two_level_active > If two_level_active:<num_active_warps>:<inner_prioritization>:<outer_prioritization>For complete list of prioritization values see shader.h enum scheduler_prioritization_typeDefault: gto
-gpgpu_reg_sharing_approach                    4 # Approach used register sharing (default=3)
-gpgpu_reg_share_thersh_hold                  0.1 # Thresh hold factor used for sharing (default=0.5)
-gpgpu_dram_scheduler                    1 # 0 = fifo, 1 = FR-FCFS (defaul)
-gpgpu_dram_partition_queues              8:8:8:8 # i2$:$2d:d2$:$2i
-l2_ideal                               0 # Use a ideal L2 cache that always hit
-gpgpu_cache:dl2     64:128:8,L:B:m:W,A:32:4,4:0,32 # unified banked L2 data cache config  {<nsets>:<bsize>:<assoc>,<rep>:<wr>:<alloc>:<wr_alloc>,<mshr>:<N>:<merge>,<mq>}
-gpgpu_cache:dl2_texture_only                    0 # L2 cache used for texture only
-gpgpu_n_mem                            6 # number of memory modules (e.g. memory controllers) in gpu
-gpgpu_n_sub_partition_per_mchannel                    2 # number of memory subpartition in each memory module
-gpgpu_n_mem_per_ctrlr                    2 # number of memory chips per memory controller
-gpgpu_memlatency_stat                    0 # track and display latency statistics 0x2 enables MC, 0x4 enables queue logs
-gpgpu_frfcfs_dram_sched_queue_size                   16 # 0 = unlimited (default); # entries per chip
-gpgpu_dram_return_queue_size                  114 # 0 = unlimited (default); # entries per chip
-gpgpu_dram_buswidth                    4 # default = 4 bytes (8 bytes per cycle at DDR)
-gpgpu_dram_burst_length                    8 # Burst length of each DRAM request (default = 4 data bus cycle)
-dram_data_command_freq_ratio                    4 # Frequency ratio between DRAM data bus and command bus (default = 2 times, i.e. DDR)
-gpgpu_dram_timing_opt nbk=16:CCD=2:RRD=6:RCD=12:RAS=28:RP=12:RC=40: CL=12:WL=4:CDLR=5:WR=12:nbkgrp=4:CCDL=3:RTPL=2 # DRAM timing parameters = {nbk:tCCD:tRRD:tRCD:tRAS:tRP:tRC:CL:WL:tCDLR:tWR:nbkgrp:tCCDL:tRTPL}
-rop_latency                          120 # ROP queue latency (default 85)
-dram_latency                         100 # DRAM latency (default 30)
-gpgpu_mem_addr_mapping dramid@8;00000000.00000000.00000000.00000000.0000RRRR.RRRRRRRR.BBBCCCCB.CCSSSSSS # mapping memory address to dram model {dramid@<start bit>;<memory address map>}
-gpgpu_mem_addr_test                    0 # run sweep test to check address mapping for aliased address
-gpgpu_mem_address_mask                    1 # 0 = old addressing mask, 1 = new addressing mask, 2 = new add. mask + flipped bank sel and chip sel bits
-gpuwattch_xml_file         gpuwattch.xml # GPUWattch XML file
-power_simulation_enabled                    0 # Turn on power simulator (1=On, 0=Off)
-power_per_cycle_dump                    0 # Dump detailed power output each cycle
-power_trace_enabled                    0 # produce a file for the power trace (1=On, 0=Off)
-power_trace_zlevel                     6 # Compression level of the power trace output log (0=no comp, 9=highest)
-steady_power_levels_enabled                    0 # produce a file for the steady power levels (1=On, 0=Off)
-steady_state_definition                  8:4 # allowed deviation:number of samples
-gpgpu_max_cycle                        0 # terminates gpu simulation early (0 = no limit)
-gpgpu_max_insn                         0 # terminates gpu simulation early (0 = no limit)
-gpgpu_max_cta                          0 # terminates gpu simulation early (0 = no limit)
-gpgpu_runtime_stat             5000000:0 # display runtime statistics such as dram utilization {<freq>:<flag>}
-liveness_message_freq                    1 # Minimum number of seconds between simulation liveness messages (0 = always print)
-gpgpu_flush_l1_cache                    0 # Flush L1 cache at the end of each kernel call
-gpgpu_flush_l2_cache                    0 # Flush L2 cache at the end of each kernel call
-gpgpu_deadlock_detect                    1 # Stop the simulation at deadlock (1=on (default), 0=off)
-gpgpu_ptx_instruction_classification                    0 # if enabled will classify ptx instruction types per kernel (Max 255 kernels now)
-gpgpu_ptx_sim_mode                     0 # Select between Performance (default) or Functional simulation (1)
-gpgpu_clock_domains 575.0:575.0:575.0:750.0 # Clock Domain Frequencies in MhZ {<Core Clock>:<ICNT Clock>:<L2 Clock>:<DRAM Clock>}
-gpgpu_max_concurrent_kernel                    8 # maximum kernels that can run concurrently on GPU
-gpgpu_cflog_interval                    0 # Interval between each snapshot in control flow logger
-visualizer_enabled                     0 # Turn on visualizer output (1=On, 0=Off)
-visualizer_outputfile                 NULL # Specifies the output log file for visualizer
-visualizer_zlevel                      6 # Compression level of the visualizer output log (0=no comp, 9=highest)
-trace_enabled                          0 # Turn on traces
-trace_components                    none # comma seperated list of traces to enable. Complete list found in trace_streams.tup. Default none
-trace_sampling_core                    0 # The core which is printed using CORE_DPRINTF. Default 0
-trace_sampling_memory_partition                   -1 # The memory partition which is printed using MEMPART_DPRINTF. Default -1 (i.e. all)
-enable_ptx_file_line_stats                    0 # Turn on PTX source line statistic profiling. (1 = On)
-ptx_line_stats_filename gpgpu_inst_stats.txt # Output file for PTX source line statistics.
-save_embedded_ptx                      0 # saves ptx files embedded in binary as <n>.ptx
-keep                                   0 # keep intermediate files created by GPGPU-Sim when interfacing with external programs
-gpgpu_ptx_save_converted_ptxplus                    1 # Saved converted ptxplus to a file
-ptx_opcode_latency_int         4,13,4,5,145 # Opcode latencies for integers <ADD,MAX,MUL,MAD,DIV>Default 1,1,19,25,145
-ptx_opcode_latency_fp          4,13,4,5,39 # Opcode latencies for single precision floating points <ADD,MAX,MUL,MAD,DIV>Default 1,1,1,1,30
-ptx_opcode_latency_dp         8,19,8,8,330 # Opcode latencies for double precision floating points <ADD,MAX,MUL,MAD,DIV>Default 8,8,8,8,335
-ptx_opcode_initiation_int            1,2,2,1,8 # Opcode initiation intervals for integers <ADD,MAX,MUL,MAD,DIV>Default 1,1,4,4,32
-ptx_opcode_initiation_fp            1,2,1,1,4 # Opcode initiation intervals for single precision floating points <ADD,MAX,MUL,MAD,DIV>Default 1,1,1,1,5
-ptx_opcode_initiation_dp         8,16,8,8,130 # Opcode initiation intervals for double precision floating points <ADD,MAX,MUL,MAD,DIV>Default 8,8,8,8,130
DRAM Timing Options:
nbk                                    16 # number of banks
CCD                                     2 # column to column delay
RRD                                     6 # minimal delay between activation of rows in different banks
RCD                                    12 # row to column delay
RAS                                    28 # time needed to activate row
RP                                     12 # time needed to precharge (deactivate) row
RC                                     40 # row cycle time
CDLR                                    5 # switching from write to read (changes tWTR)
WR                                     12 # last data-in to row precharge
CL                                     12 # CAS latency
WL                                      4 # Write latency
nbkgrp                                  4 # number of bank groups
CCDL                                    3 # column to column delay between accesses to different bank groups
RTPL                                    2 # read to precharge delay between accesses to different bank groups
Total number of memory sub partition = 12
addr_dec_mask[CHIP]  = 0000000000000000 	high:64 low:0
addr_dec_mask[BK]    = 000000000000e100 	high:16 low:8
addr_dec_mask[ROW]   = 000000000fff0000 	high:28 low:16
addr_dec_mask[COL]   = 0000000000001eff 	high:13 low:0
addr_dec_mask[BURST] = 000000000000003f 	high:6 low:0
sub_partition_id_mask = 0000000000000100
GPGPU-Sim uArch: clock freqs: 575000000.000000:575000000.000000:575000000.000000:750000000.000000
GPGPU-Sim uArch: clock periods: 0.00000000173913043478:0.00000000173913043478:0.00000000173913043478:0.00000000133333333333
*** Initializing Memory Statistics ***
GPGPU-Sim uArch: interconnect node map (shaderID+MemID to icntID)
GPGPU-Sim uArch: Memory nodes ID start from index: 14
GPGPU-Sim uArch:    0   1   2   3   4
GPGPU-Sim uArch:    5   6   7   8   9
GPGPU-Sim uArch:   10  11  12  13  14
GPGPU-Sim uArch:   15  16  17  18  19
GPGPU-Sim uArch:   20  21  22  23  24
GPGPU-Sim uArch:   25
GPGPU-Sim uArch: interconnect node reverse map (icntID to shaderID+MemID)
GPGPU-Sim uArch: Memory nodes start from ID: 14
GPGPU-Sim uArch:    0   1   2   3   4
GPGPU-Sim uArch:    5   6   7   8   9
GPGPU-Sim uArch:   10  11  12  13  14
GPGPU-Sim uArch:   15  16  17  18  19
GPGPU-Sim uArch:   20  21  22  23  24
GPGPU-Sim uArch:   25
ab3778937a18a2a07ea2542ed27222a6  /home/vishwesh/Desktop/Register_Sharing_Pbm/ispass2009-benchmarks/bin/release/LPS
GPGPU-Sim uArch: performance model initialization complete.
GPGPU-Sim PTX: __cudaRegisterFatBinary, fat_cubin_handle = 1, filename=laplace3d.cu
self exe links to: /home/vishwesh/Desktop/Register_Sharing_Pbm/ispass2009-benchmarks/bin/release/LPS
Running md5sum using "md5sum /home/vishwesh/Desktop/Register_Sharing_Pbm/ispass2009-benchmarks/bin/release/LPS "
Running cuobjdump using "$CUDA_INSTALL_PATH/bin/cuobjdump -ptx -elf -sass /home/vishwesh/Desktop/Register_Sharing_Pbm/ispass2009-benchmarks/bin/release/LPS > _cuobjdump_complete_output_8HCFNK"
Parsing file _cuobjdump_complete_output_8HCFNK
######### cuobjdump parser ########
## Adding new section PTX
Adding ptx filename: _cuobjdump_1.ptx
Adding arch: sm_10
Adding identifier: laplace3d.cu
## Adding new section ELF
Adding arch: sm_10
Adding identifier: laplace3d.cu
## Adding new section ELF
Adding arch: sm_20
Adding identifier: laplace3d.cu
## Adding new section PTX
Adding ptx filename: _cuobjdump_2.ptx
Adding arch: sm_20
Adding identifier: laplace3d.cu
Done parsing!!!
GPGPU-Sim: WARNING: Capability >= 20 are not supported in PTXPlus
	Setting forced_max_capability to 19
GPGPU-Sim PTX: __cudaRegisterFunction _Z13GPU_laplace3diiiiPfS_ : hostFun 0x0x403b00, fat_cubin_handle = 1
GPGPU-Sim PTX: converting EMBEDDED .ptx file to ptxplus 
GPGPU-Sim PTX: DONE converting EMBEDDED .ptx file to ptxplus 
GPGPU-Sim PTX: allocating constant region for "constant1_Z13GPU_laplace3diiiiPfS_" from 0x100 to 0x114 (global memory space) 1
GPGPU-Sim PTX: PTX uses two scalar type intruction with literal operand.
GPGPU-Sim PTX: instruction assembly for function '_Z13GPU_laplace3diiiiPfS_'...   done.
GPGPU-Sim PTX: finding reconvergence points for '_Z13GPU_laplace3diiiiPfS_'...
GPGPU-Sim PTX: Warning detected predicated return/exit.
GPGPU-Sim PTX: Finding dominators for '_Z13GPU_laplace3diiiiPfS_'...
GPGPU-Sim PTX: Finding immediate dominators for '_Z13GPU_laplace3diiiiPfS_'...
GPGPU-Sim PTX: Finding postdominators for '_Z13GPU_laplace3diiiiPfS_'...
GPGPU-Sim PTX: Finding immediate postdominators for '_Z13GPU_laplace3diiiiPfS_'...
GPGPU-Sim PTX: pre-decoding instructions for '_Z13GPU_laplace3diiiiPfS_'...
GPGPU-Sim PTX: reconvergence points for _Z13GPU_laplace3diiiiPfS_...
GPGPU-Sim PTX:  1 (potential) branch divergence @  PC=0x058 (_1.ptx:63) @$p0.eq bra l0x00000178;
GPGPU-Sim PTX:    immediate post dominator      @  PC=0x190 (_1.ptx:103) l0x00000190: and.u16 $r2.lo, $r2.hi, constant1_Z13GPU_laplace3diiiiPfS_[0x0000];
GPGPU-Sim PTX:  2 (potential) branch divergence @  PC=0x078 (_1.ptx:67) @$p0.ne bra l0x000000a0;
GPGPU-Sim PTX:    immediate post dominator      @  PC=0x0f0 (_1.ptx:82) l0x000000f0: shl.u32 $r5, $r5, 0x00000005;
GPGPU-Sim PTX:  3 (potential) branch divergence @  PC=0x098 (_1.ptx:71) bra l0x000000f0;
GPGPU-Sim PTX:    immediate post dominator      @  PC=0x0f0 (_1.ptx:82) l0x000000f0: shl.u32 $r5, $r5, 0x00000005;
GPGPU-Sim PTX:  4 (potential) branch divergence @  PC=0x170 (_1.ptx:99) bra l0x00000190;
GPGPU-Sim PTX:    immediate post dominator      @  PC=0x190 (_1.ptx:103) l0x00000190: and.u16 $r2.lo, $r2.hi, constant1_Z13GPU_laplace3diiiiPfS_[0x0000];
GPGPU-Sim PTX:  5 (potential) branch divergence @  PC=0x1e0 (_1.ptx:114) @$p0.eq bra l0x00000220;
GPGPU-Sim PTX:    immediate post dominator      @  PC=0x220 (_1.ptx:122) l0x00000220: set.ne.s32.s32 $p1/$r4, $r8, $r124;
GPGPU-Sim PTX:  6 (potential) branch divergence @  PC=0x2a8 (_1.ptx:139) @$p1.ne bra l0x00000318;
GPGPU-Sim PTX:    immediate post dominator      @  PC=0x318 (_1.ptx:154) l0x00000318: nop;
GPGPU-Sim PTX:  7 (potential) branch divergence @  PC=0x328 (_1.ptx:156) @$p0.eq bra l0x000003a0;
GPGPU-Sim PTX:    immediate post dominator      @  PC=0x3a0 (_1.ptx:172) l0x000003a0: nop;
GPGPU-Sim PTX:  8 (potential) branch divergence @  PC=0x3c0 (_1.ptx:176) @$p1.ne bra l0x000004b0;
GPGPU-Sim PTX:    immediate post dominator      @  PC=0x4b0 (_1.ptx:207) l0x000004b0: nop;
GPGPU-Sim PTX:  9 (potential) branch divergence @  PC=0x3d8 (_1.ptx:179) @$p1.ne bra l0x00000430;
GPGPU-Sim PTX:    immediate post dominator      @  PC=0x498 (_1.ptx:204) l0x00000498: shl.u32 $r4, $r0, 0x00000002;
GPGPU-Sim PTX: 10 (potential) branch divergence @  PC=0x3e8 (_1.ptx:181) @$p1.ne bra l0x00000430;
GPGPU-Sim PTX:    immediate post dominator      @  PC=0x498 (_1.ptx:204) l0x00000498: shl.u32 $r4, $r0, 0x00000002;
GPGPU-Sim PTX: 11 (potential) branch divergence @  PC=0x3f8 (_1.ptx:183) @$p1.ne bra l0x00000430;
GPGPU-Sim PTX:    immediate post dominator      @  PC=0x498 (_1.ptx:204) l0x00000498: shl.u32 $r4, $r0, 0x00000002;
GPGPU-Sim PTX: 12 (potential) branch divergence @  PC=0x408 (_1.ptx:185) @$p1.ne bra l0x00000430;
GPGPU-Sim PTX:    immediate post dominator      @  PC=0x498 (_1.ptx:204) l0x00000498: shl.u32 $r4, $r0, 0x00000002;
GPGPU-Sim PTX: 13 (potential) branch divergence @  PC=0x418 (_1.ptx:187) @$p1.ne bra l0x00000430;
GPGPU-Sim PTX:    immediate post dominator      @  PC=0x498 (_1.ptx:204) l0x00000498: shl.u32 $r4, $r0, 0x00000002;
GPGPU-Sim PTX: 14 (potential) branch divergence @  PC=0x428 (_1.ptx:189) @$p1.ne bra l0x00000448;
GPGPU-Sim PTX:    immediate post dominator      @  PC=0x498 (_1.ptx:204) l0x00000498: shl.u32 $r4, $r0, 0x00000002;
GPGPU-Sim PTX: 15 (potential) branch divergence @  PC=0x440 (_1.ptx:192) bra l0x00000498;
GPGPU-Sim PTX:    immediate post dominator      @  PC=0x498 (_1.ptx:204) l0x00000498: shl.u32 $r4, $r0, 0x00000002;
GPGPU-Sim PTX: 16 (potential) branch divergence @  PC=0x4d0 (_1.ptx:211) @$p1.ne bra l0x00000298;
GPGPU-Sim PTX:    immediate post dominator      @  PC=0x4d8 (_1.ptx:212) nop;
GPGPU-Sim PTX: ... end of reconvergence points for _Z13GPU_laplace3diiiiPfS_
GPGPU-Sim PTX: ... done pre-decoding instructions for '_Z13GPU_laplace3diiiiPfS_'.
GPGPU-Sim PTX: finished parsing EMBEDDED .ptx file _1.ptx
Adding _cuobjdump_1.ptx with cubin handle 1
GPGPU-Sim PTX: extracting embedded .ptx to temporary file "_ptx_TpTveo"
Running: cat _ptx_TpTveo | sed 's/.version 1.5/.version 1.4/' | sed 's/, texmode_independent//' | sed 's/\(\.extern \.const\[1\] .b8 \w\+\)\[\]/\1\[1\]/' | sed 's/const\[.\]/const\[0\]/g' > _ptx2_kC3mF1
GPGPU-Sim PTX: generating ptxinfo using "$CUDA_INSTALL_PATH/bin/ptxas --gpu-name=sm_20 -v _ptx2_kC3mF1 --output-file  /dev/null 2> _ptx_TpTveoinfo"
GPGPU-Sim PTX: Kernel '_Z13GPU_laplace3diiiiPfS_' : regs=17, lmem=0, smem=4080, cmem=64
GPGPU-Sim PTX: removing ptxinfo using "rm -f _ptx_TpTveo _ptx2_kC3mF1 _ptx_TpTveoinfo"
GPGPU-Sim PTX: loading globals with explicit initializers... 
GPGPU-Sim PTX: finished loading globals (0 bytes total).
GPGPU-Sim PTX: loading constants with explicit initializers...  done.

Grid dimensions: 256 x 256 x 100
GPGPU-Sim PTX: cudaMallocPitch (width = 1024)
GPGPU-Sim PTX: cudaMallocPitch (width = 1024)
GPGPU-Sim: synchronize waiting for inactive GPU simulation
GPGPU-Sim API: Stream Manager State
GPGPU-Sim: detected inactive GPU simulation thread

Copy u1 to device: 419.713989 (ms) 

 dimGrid  = 8 32 1 
 dimBlock = 32 8 1 
GPGPU-Sim: synchronize waiting for inactive GPU simulation
GPGPU-Sim API: Stream Manager State
GPGPU-Sim: detected inactive GPU simulation thread

GPGPU-Sim PTX: cudaLaunch for 0x0x403b00 (mode=performance simulation) on stream 0
GPGPU-Sim PTX: pushing kernel '_Z13GPU_laplace3diiiiPfS_' to stream 0, gridDim= (8,32,1) blockDim = (32,8,1) 
kernel '_Z13GPU_laplace3diiiiPfS_' transfer to GPU hardware scheduler
GPGPU-Sim uArch: Shader 1 bind to kernel 1 '_Z13GPU_laplace3diiiiPfS_'
GPGPU-Sim uArch: CTA/core = 10, limited by: regs
Shared mode is : 1
GPGPU-Sim uArch: core:  1, cta: 0 initialized @(1,0)
GPGPU-Sim uArch: Shader 2 bind to kernel 1 '_Z13GPU_laplace3diiiiPfS_'
Shared mode is : 1
GPGPU-Sim uArch: core:  2, cta: 0 initialized @(1,0)
GPGPU-Sim uArch: Shader 3 bind to kernel 1 '_Z13GPU_laplace3diiiiPfS_'
Shared mode is : 1
GPGPU-Sim uArch: core:  3, cta: 0 initialized @(1,0)
GPGPU-Sim uArch: Shader 4 bind to kernel 1 '_Z13GPU_laplace3diiiiPfS_'
Shared mode is : 1
GPGPU-Sim uArch: core:  4, cta: 0 initialized @(1,0)
GPGPU-Sim uArch: Shader 5 bind to kernel 1 '_Z13GPU_laplace3diiiiPfS_'
Shared mode is : 1
GPGPU-Sim uArch: core:  5, cta: 0 initialized @(1,0)
GPGPU-Sim uArch: Shader 6 bind to kernel 1 '_Z13GPU_laplace3diiiiPfS_'
Shared mode is : 1
GPGPU-Sim uArch: core:  6, cta: 0 initialized @(1,0)
GPGPU-Sim uArch: Shader 7 bind to kernel 1 '_Z13GPU_laplace3diiiiPfS_'
Shared mode is : 1
GPGPU-Sim uArch: core:  7, cta: 0 initialized @(1,0)
GPGPU-Sim uArch: Shader 8 bind to kernel 1 '_Z13GPU_laplace3diiiiPfS_'
Shared mode is : 1
GPGPU-Sim uArch: core:  8, cta: 0 initialized @(1,0)
GPGPU-Sim uArch: Shader 9 bind to kernel 1 '_Z13GPU_laplace3diiiiPfS_'
Shared mode is : 1
GPGPU-Sim uArch: core:  9, cta: 0 initialized @(1,0)
GPGPU-Sim uArch: Shader 10 bind to kernel 1 '_Z13GPU_laplace3diiiiPfS_'
Shared mode is : 1
GPGPU-Sim uArch: core: 10, cta: 0 initialized @(1,0)
GPGPU-Sim uArch: Shader 11 bind to kernel 1 '_Z13GPU_laplace3diiiiPfS_'
Shared mode is : 1
GPGPU-Sim uArch: core: 11, cta: 0 initialized @(1,0)
GPGPU-Sim uArch: Shader 12 bind to kernel 1 '_Z13GPU_laplace3diiiiPfS_'
Shared mode is : 1
GPGPU-Sim uArch: core: 12, cta: 0 initialized @(1,0)
GPGPU-Sim uArch: Shader 13 bind to kernel 1 '_Z13GPU_laplace3diiiiPfS_'
Shared mode is : 1
GPGPU-Sim uArch: core: 13, cta: 0 initialized @(1,0)
GPGPU-Sim uArch: Shader 0 bind to kernel 1 '_Z13GPU_laplace3diiiiPfS_'
Shared mode is : 1
GPGPU-Sim uArch: core:  0, cta: 0 initialized @(1,0)
Shared mode is : 1
GPGPU-Sim uArch: core:  1, cta: 1 initialized @(2,0)
Shared mode is : 1
GPGPU-Sim uArch: core:  2, cta: 1 initialized @(2,0)
Shared mode is : 1
GPGPU-Sim uArch: core:  3, cta: 1 initialized @(2,0)
Shared mode is : 1
GPGPU-Sim uArch: core:  4, cta: 1 initialized @(2,0)
Shared mode is : 1
GPGPU-Sim uArch: core:  5, cta: 1 initialized @(2,0)
Shared mode is : 1
GPGPU-Sim uArch: core:  6, cta: 1 initialized @(2,0)
Shared mode is : 1
GPGPU-Sim uArch: core:  7, cta: 1 initialized @(2,0)
Shared mode is : 1
GPGPU-Sim uArch: core:  8, cta: 1 initialized @(2,0)
Shared mode is : 1
GPGPU-Sim uArch: core:  9, cta: 1 initialized @(2,0)
Shared mode is : 1
GPGPU-Sim uArch: core: 10, cta: 1 initialized @(2,0)
Shared mode is : 1
GPGPU-Sim uArch: core: 11, cta: 1 initialized @(2,0)
Shared mode is : 1
GPGPU-Sim uArch: core: 12, cta: 1 initialized @(2,0)
Shared mode is : 1
GPGPU-Sim uArch: core: 13, cta: 1 initialized @(2,0)
Shared mode is : 1
GPGPU-Sim uArch: core:  0, cta: 1 initialized @(2,0)
Shared mode is : 1
GPGPU-Sim uArch: core:  1, cta: 2 initialized @(3,0)
Shared mode is : 1
GPGPU-Sim uArch: core:  2, cta: 2 initialized @(3,0)
Shared mode is : 1
GPGPU-Sim uArch: core:  3, cta: 2 initialized @(3,0)
Shared mode is : 1
GPGPU-Sim uArch: core:  4, cta: 2 initialized @(3,0)
Shared mode is : 1
GPGPU-Sim uArch: core:  5, cta: 2 initialized @(3,0)
Shared mode is : 1
GPGPU-Sim uArch: core:  6, cta: 2 initialized @(3,0)
Shared mode is : 1
GPGPU-Sim uArch: core:  7, cta: 2 initialized @(3,0)
Shared mode is : 1
GPGPU-Sim uArch: core:  8, cta: 2 initialized @(3,0)
Shared mode is : 1
GPGPU-Sim uArch: core:  9, cta: 2 initialized @(3,0)
Shared mode is : 1
GPGPU-Sim uArch: core: 10, cta: 2 initialized @(3,0)
Shared mode is : 1
GPGPU-Sim uArch: core: 11, cta: 2 initialized @(3,0)
Shared mode is : 1
GPGPU-Sim uArch: core: 12, cta: 2 initialized @(3,0)
Shared mode is : 1
GPGPU-Sim uArch: core: 13, cta: 2 initialized @(3,0)
Shared mode is : 1
GPGPU-Sim uArch: core:  0, cta: 2 initialized @(3,0)
Shared mode is : 1
GPGPU-Sim uArch: core:  1, cta: 3 initialized @(4,0)
Shared mode is : 1
GPGPU-Sim uArch: core:  2, cta: 3 initialized @(4,0)
Shared mode is : 1
GPGPU-Sim uArch: core:  3, cta: 3 initialized @(4,0)
Shared mode is : 1
GPGPU-Sim uArch: core:  4, cta: 3 initialized @(4,0)
Shared mode is : 1
GPGPU-Sim uArch: core:  5, cta: 3 initialized @(4,0)
Shared mode is : 1
GPGPU-Sim uArch: core:  6, cta: 3 initialized @(4,0)
Shared mode is : 1
GPGPU-Sim uArch: core:  7, cta: 3 initialized @(4,0)
Shared mode is : 1
GPGPU-Sim uArch: core:  8, cta: 3 initialized @(4,0)
Shared mode is : 1
GPGPU-Sim uArch: core:  9, cta: 3 initialized @(4,0)
Shared mode is : 1
GPGPU-Sim uArch: core: 10, cta: 3 initialized @(4,0)
Shared mode is : 1
GPGPU-Sim uArch: core: 11, cta: 3 initialized @(4,0)
Shared mode is : 1
GPGPU-Sim uArch: core: 12, cta: 3 initialized @(4,0)
Shared mode is : 1
GPGPU-Sim uArch: core: 13, cta: 3 initialized @(4,0)
Shared mode is : 1
GPGPU-Sim uArch: core:  0, cta: 3 initialized @(4,0)
Shared mode is : 1
GPGPU-Sim uArch: core:  1, cta: 4 initialized @(5,0)
Shared mode is : 1
GPGPU-Sim uArch: core:  2, cta: 4 initialized @(5,0)
Shared mode is : 1
GPGPU-Sim uArch: core:  3, cta: 4 initialized @(5,0)
Shared mode is : 1
GPGPU-Sim uArch: core:  4, cta: 4 initialized @(5,0)
Shared mode is : 1
GPGPU-Sim uArch: core:  5, cta: 4 initialized @(5,0)
Shared mode is : 1
GPGPU-Sim uArch: core:  6, cta: 4 initialized @(5,0)
Shared mode is : 1
GPGPU-Sim uArch: core:  7, cta: 4 initialized @(5,0)
Shared mode is : 1
GPGPU-Sim uArch: core:  8, cta: 4 initialized @(5,0)
Shared mode is : 1
GPGPU-Sim uArch: core:  9, cta: 4 initialized @(5,0)
Shared mode is : 1
GPGPU-Sim uArch: core: 10, cta: 4 initialized @(5,0)
Shared mode is : 1
GPGPU-Sim uArch: core: 11, cta: 4 initialized @(5,0)
Shared mode is : 1
GPGPU-Sim uArch: core: 12, cta: 4 initialized @(5,0)
Shared mode is : 1
GPGPU-Sim uArch: core: 13, cta: 4 initialized @(5,0)
Shared mode is : 1
GPGPU-Sim uArch: core:  0, cta: 4 initialized @(5,0)
Shared mode is : 1
GPGPU-Sim uArch: core:  1, cta: 5 initialized @(6,0)
Shared mode is : 1
GPGPU-Sim uArch: core:  2, cta: 5 initialized @(6,0)
Shared mode is : 1
GPGPU-Sim uArch: core:  3, cta: 5 initialized @(6,0)
Shared mode is : 1
GPGPU-Sim uArch: core:  4, cta: 5 initialized @(6,0)
Shared mode is : 1
GPGPU-Sim uArch: core:  5, cta: 5 initialized @(6,0)
Shared mode is : 1
GPGPU-Sim uArch: core:  6, cta: 5 initialized @(6,0)
Shared mode is : 1
GPGPU-Sim uArch: core:  7, cta: 5 initialized @(6,0)
Shared mode is : 1
GPGPU-Sim uArch: core:  8, cta: 5 initialized @(6,0)
Shared mode is : 1
GPGPU-Sim uArch: core:  9, cta: 5 initialized @(6,0)
Shared mode is : 1
GPGPU-Sim uArch: core: 10, cta: 5 initialized @(6,0)
Shared mode is : 1
GPGPU-Sim uArch: core: 11, cta: 5 initialized @(6,0)
Shared mode is : 1
GPGPU-Sim uArch: core: 12, cta: 5 initialized @(6,0)
Shared mode is : 1
GPGPU-Sim uArch: core: 13, cta: 5 initialized @(6,0)
Shared mode is : 1
GPGPU-Sim uArch: core:  0, cta: 5 initialized @(6,0)
Shared mode is : 1
GPGPU-Sim uArch: core:  1, cta: 6 initialized @(7,0)
Shared mode is : 1
GPGPU-Sim uArch: core:  2, cta: 6 initialized @(7,0)
Shared mode is : 1
GPGPU-Sim uArch: core:  3, cta: 6 initialized @(7,0)
Shared mode is : 1
GPGPU-Sim uArch: core:  4, cta: 6 initialized @(7,0)
Shared mode is : 1
GPGPU-Sim uArch: core:  5, cta: 6 initialized @(7,0)
Shared mode is : 1
GPGPU-Sim uArch: core:  6, cta: 6 initialized @(7,0)
Shared mode is : 1
GPGPU-Sim uArch: core:  7, cta: 6 initialized @(7,0)
Shared mode is : 1
GPGPU-Sim uArch: core:  8, cta: 6 initialized @(7,0)
Shared mode is : 1
GPGPU-Sim uArch: core:  9, cta: 6 initialized @(7,0)
Shared mode is : 1
GPGPU-Sim uArch: core: 10, cta: 6 initialized @(7,0)
Shared mode is : 1
GPGPU-Sim uArch: core: 11, cta: 6 initialized @(7,0)
Shared mode is : 1
GPGPU-Sim uArch: core: 12, cta: 6 initialized @(7,0)
Shared mode is : 1
GPGPU-Sim uArch: core: 13, cta: 6 initialized @(7,0)
Shared mode is : 1
GPGPU-Sim uArch: core:  0, cta: 6 initialized @(7,0)
Shared mode is : 1
GPGPU-Sim uArch: core:  1, cta: 7 initialized @(8,0)
Shared mode is : 1
GPGPU-Sim uArch: core:  2, cta: 7 initialized @(8,0)
Shared mode is : 1
GPGPU-Sim uArch: core:  3, cta: 7 initialized @(8,0)
Shared mode is : 1
GPGPU-Sim uArch: core:  4, cta: 7 initialized @(8,0)
Shared mode is : 1
GPGPU-Sim uArch: core:  5, cta: 7 initialized @(8,0)
Shared mode is : 1
GPGPU-Sim uArch: core:  6, cta: 7 initialized @(8,0)
Shared mode is : 1
GPGPU-Sim uArch: core:  7, cta: 7 initialized @(8,0)
Shared mode is : 1
GPGPU-Sim uArch: core:  8, cta: 7 initialized @(8,0)
Shared mode is : 1
GPGPU-Sim uArch: core:  9, cta: 7 initialized @(8,0)
Shared mode is : 1
GPGPU-Sim uArch: core: 10, cta: 7 initialized @(8,0)
Shared mode is : 1
GPGPU-Sim uArch: core: 11, cta: 7 initialized @(8,0)
Shared mode is : 1
GPGPU-Sim uArch: core: 12, cta: 7 initialized @(8,0)
Shared mode is : 1
GPGPU-Sim uArch: core: 13, cta: 7 initialized @(8,0)
Shared mode is : 1
GPGPU-Sim uArch: core:  0, cta: 7 initialized @(8,0)
Shared mode is : 1
GPGPU-Sim uArch: core:  1, cta: 8 initialized @(9,0)
Shared mode is : 1
GPGPU-Sim uArch: core:  2, cta: 8 initialized @(9,0)
Shared mode is : 1
GPGPU-Sim uArch: core:  3, cta: 8 initialized @(9,0)
Shared mode is : 1
GPGPU-Sim uArch: core:  4, cta: 8 initialized @(9,0)
Shared mode is : 1
GPGPU-Sim uArch: core:  5, cta: 8 initialized @(9,0)
Shared mode is : 1
GPGPU-Sim uArch: core:  6, cta: 8 initialized @(9,0)
Shared mode is : 1
GPGPU-Sim uArch: core:  7, cta: 8 initialized @(9,0)
Shared mode is : 1
GPGPU-Sim uArch: core:  8, cta: 8 initialized @(9,0)
Shared mode is : 1
GPGPU-Sim uArch: core:  9, cta: 8 initialized @(9,0)
Shared mode is : 1
GPGPU-Sim uArch: core: 10, cta: 8 initialized @(9,0)
Shared mode is : 1
GPGPU-Sim uArch: core: 11, cta: 8 initialized @(9,0)
Shared mode is : 1
GPGPU-Sim uArch: core: 12, cta: 8 initialized @(9,0)
Shared mode is : 1
GPGPU-Sim uArch: core: 13, cta: 8 initialized @(9,0)
Shared mode is : 1
GPGPU-Sim uArch: core:  0, cta: 8 initialized @(9,0)
Shared mode is : 1
GPGPU-Sim uArch: core:  1, cta: 9 initialized @(10,0)
Shared mode is : 1
GPGPU-Sim uArch: core:  2, cta: 9 initialized @(10,0)
Shared mode is : 1
GPGPU-Sim uArch: core:  3, cta: 9 initialized @(10,0)
Shared mode is : 1
GPGPU-Sim uArch: core:  4, cta: 9 initialized @(10,0)
Shared mode is : 1
GPGPU-Sim uArch: core:  5, cta: 9 initialized @(10,0)
Shared mode is : 1
GPGPU-Sim uArch: core:  6, cta: 9 initialized @(10,0)
Shared mode is : 1
GPGPU-Sim uArch: core:  7, cta: 9 initialized @(10,0)
Shared mode is : 1
GPGPU-Sim uArch: core:  8, cta: 9 initialized @(10,0)
Shared mode is : 1
GPGPU-Sim uArch: core:  9, cta: 9 initialized @(10,0)
Shared mode is : 1
GPGPU-Sim uArch: core: 10, cta: 9 initialized @(10,0)
Shared mode is : 1
GPGPU-Sim uArch: core: 11, cta: 9 initialized @(10,0)
Shared mode is : 1
GPGPU-Sim uArch: core: 12, cta: 9 initialized @(10,0)
Shared mode is : 1
GPGPU-Sim uArch: core: 13, cta: 9 initialized @(10,0)
Shared mode is : 1
GPGPU-Sim uArch: core:  0, cta: 9 initialized @(10,0)
GPGPU-Sim PTX: WARNING (_1.ptx:87) ** reading undefined register '$r124' (cuid:0). Setting to 0X00000000. This is okay if you are simulating the native ISA
GPGPU-Sim uArch: Shader 7 finished CTA #0 (167016,0), 9 CTAs running
Shared mode is : 1
GPGPU-Sim uArch: core:  7, cta: 0 initialized @(167017,0)
GPGPU-Sim uArch: Shader 8 finished CTA #0 (167479,0), 9 CTAs running
Shared mode is : 1
GPGPU-Sim uArch: core:  8, cta: 0 initialized @(167480,0)
GPGPU-Sim uArch: Shader 6 finished CTA #0 (167837,0), 9 CTAs running
Shared mode is : 1
GPGPU-Sim uArch: core:  6, cta: 0 initialized @(167838,0)
GPGPU-Sim uArch: Shader 5 finished CTA #0 (168647,0), 9 CTAs running
Shared mode is : 1
GPGPU-Sim uArch: core:  5, cta: 0 initialized @(168648,0)
GPGPU-Sim uArch: Shader 4 finished CTA #0 (168814,0), 9 CTAs running
Shared mode is : 1
GPGPU-Sim uArch: core:  4, cta: 0 initialized @(168815,0)
GPGPU-Sim uArch: Shader 3 finished CTA #0 (168971,0), 9 CTAs running
Shared mode is : 1
GPGPU-Sim uArch: core:  3, cta: 0 initialized @(168972,0)
GPGPU-Sim uArch: Shader 2 finished CTA #0 (169172,0), 9 CTAs running
Shared mode is : 1
GPGPU-Sim uArch: core:  2, cta: 0 initialized @(169173,0)
GPGPU-Sim uArch: Shader 1 finished CTA #0 (169976,0), 9 CTAs running
Shared mode is : 1
GPGPU-Sim uArch: core:  1, cta: 0 initialized @(169977,0)
GPGPU-Sim uArch: Shader 10 finished CTA #0 (172323,0), 9 CTAs running
Shared mode is : 1
GPGPU-Sim uArch: core: 10, cta: 0 initialized @(172324,0)
GPGPU-Sim uArch: Shader 9 finished CTA #0 (172437,0), 9 CTAs running
Shared mode is : 1
GPGPU-Sim uArch: core:  9, cta: 0 initialized @(172438,0)
GPGPU-Sim uArch: Shader 11 finished CTA #0 (172669,0), 9 CTAs running
Shared mode is : 1
GPGPU-Sim uArch: core: 11, cta: 0 initialized @(172670,0)
GPGPU-Sim uArch: Shader 12 finished CTA #0 (173520,0), 9 CTAs running
Shared mode is : 1
GPGPU-Sim uArch: core: 12, cta: 0 initialized @(173521,0)
GPGPU-Sim uArch: Shader 13 finished CTA #0 (174020,0), 9 CTAs running
Shared mode is : 1
GPGPU-Sim uArch: core: 13, cta: 0 initialized @(174021,0)
GPGPU-Sim uArch: Shader 1 finished CTA #1 (174417,0), 9 CTAs running
Shared mode is : 1
GPGPU-Sim uArch: core:  1, cta: 1 initialized @(174418,0)
GPGPU-Sim uArch: Shader 2 finished CTA #1 (174909,0), 9 CTAs running
Shared mode is : 1
GPGPU-Sim uArch: core:  2, cta: 1 initialized @(174910,0)
GPGPU-Sim uArch: Shader 0 finished CTA #0 (174998,0), 9 CTAs running
Shared mode is : 1
GPGPU-Sim uArch: core:  0, cta: 0 initialized @(174999,0)
GPGPU-Sim uArch: Shader 8 finished CTA #1 (175910,0), 9 CTAs running
Shared mode is : 1
GPGPU-Sim uArch: core:  8, cta: 1 initialized @(175911,0)
GPGPU-Sim uArch: Shader 7 finished CTA #1 (176059,0), 9 CTAs running
Shared mode is : 1
GPGPU-Sim uArch: core:  7, cta: 1 initialized @(176060,0)
GPGPU-Sim uArch: Shader 9 finished CTA #1 (176267,0), 9 CTAs running
Shared mode is : 1
GPGPU-Sim uArch: core:  9, cta: 1 initialized @(176268,0)
GPGPU-Sim uArch: Shader 10 finished CTA #1 (176953,0), 9 CTAs running
Shared mode is : 1
GPGPU-Sim uArch: core: 10, cta: 1 initialized @(176954,0)
GPGPU-Sim uArch: Shader 6 finished CTA #1 (177243,0), 9 CTAs running
Shared mode is : 1
GPGPU-Sim uArch: core:  6, cta: 1 initialized @(177244,0)
GPGPU-Sim uArch: Shader 5 finished CTA #1 (179209,0), 9 CTAs running
Shared mode is : 1
GPGPU-Sim uArch: core:  5, cta: 1 initialized @(179210,0)
GPGPU-Sim uArch: Shader 4 finished CTA #1 (180736,0), 9 CTAs running
Shared mode is : 1
GPGPU-Sim uArch: core:  4, cta: 1 initialized @(180737,0)
GPGPU-Sim uArch: Shader 3 finished CTA #1 (181020,0), 9 CTAs running
Shared mode is : 1
GPGPU-Sim uArch: core:  3, cta: 1 initialized @(181021,0)
GPGPU-Sim uArch: Shader 12 finished CTA #1 (186829,0), 9 CTAs running
Shared mode is : 1
GPGPU-Sim uArch: core: 12, cta: 1 initialized @(186830,0)
GPGPU-Sim uArch: Shader 11 finished CTA #1 (187329,0), 9 CTAs running
Shared mode is : 1
GPGPU-Sim uArch: core: 11, cta: 1 initialized @(187330,0)
GPGPU-Sim uArch: Shader 13 finished CTA #1 (187351,0), 9 CTAs running
Shared mode is : 1
GPGPU-Sim uArch: core: 13, cta: 1 initialized @(187352,0)
GPGPU-Sim uArch: Shader 0 finished CTA #1 (188054,0), 9 CTAs running
Shared mode is : 1
GPGPU-Sim uArch: core:  0, cta: 1 initialized @(188055,0)
GPGPU-Sim uArch: Shader 10 finished CTA #4 (201009,0), 9 CTAs running
Shared mode is : 1
GPGPU-Sim uArch: core: 10, cta: 4 initialized @(201010,0)
GPGPU-Sim uArch: Shader 9 finished CTA #4 (201682,0), 9 CTAs running
Shared mode is : 1
GPGPU-Sim uArch: core:  9, cta: 4 initialized @(201683,0)
GPGPU-Sim uArch: Shader 6 finished CTA #2 (204239,0), 9 CTAs running
Shared mode is : 1
GPGPU-Sim uArch: core:  6, cta: 2 initialized @(204240,0)
GPGPU-Sim uArch: Shader 2 finished CTA #5 (204301,0), 9 CTAs running
Shared mode is : 1
GPGPU-Sim uArch: core:  2, cta: 5 initialized @(204302,0)
GPGPU-Sim uArch: Shader 5 finished CTA #2 (205497,0), 9 CTAs running
Shared mode is : 1
GPGPU-Sim uArch: core:  5, cta: 2 initialized @(205498,0)
GPGPU-Sim uArch: Shader 7 finished CTA #2 (205549,0), 9 CTAs running
Shared mode is : 1
GPGPU-Sim uArch: core:  7, cta: 2 initialized @(205550,0)
GPGPU-Sim uArch: Shader 8 finished CTA #2 (205632,0), 9 CTAs running
Shared mode is : 1
GPGPU-Sim uArch: core:  8, cta: 2 initialized @(205633,0)
GPGPU-Sim uArch: Shader 0 finished CTA #4 (212014,0), 9 CTAs running
Shared mode is : 1
GPGPU-Sim uArch: core:  0, cta: 4 initialized @(212015,0)
GPGPU-Sim uArch: Shader 1 finished CTA #5 (215153,0), 9 CTAs running
Shared mode is : 1
GPGPU-Sim uArch: core:  1, cta: 5 initialized @(215154,0)
GPGPU-Sim uArch: Shader 1 finished CTA #4 (216200,0), 9 CTAs running
Shared mode is : 1
GPGPU-Sim uArch: core:  1, cta: 4 initialized @(216201,0)
GPGPU-Sim uArch: Shader 3 finished CTA #6 (217841,0), 9 CTAs running
Shared mode is : 1
GPGPU-Sim uArch: core:  3, cta: 6 initialized @(217842,0)
GPGPU-Sim uArch: Shader 12 finished CTA #6 (219461,0), 9 CTAs running
Shared mode is : 1
GPGPU-Sim uArch: core: 12, cta: 6 initialized @(219462,0)
GPGPU-Sim uArch: Shader 11 finished CTA #5 (220695,0), 9 CTAs running
Shared mode is : 1
GPGPU-Sim uArch: core: 11, cta: 5 initialized @(220696,0)
GPGPU-Sim uArch: Shader 4 finished CTA #2 (220895,0), 9 CTAs running
Shared mode is : 1
GPGPU-Sim uArch: core:  4, cta: 2 initialized @(220896,0)
GPGPU-Sim uArch: Shader 10 finished CTA #5 (225975,0), 9 CTAs running
Shared mode is : 1
GPGPU-Sim uArch: core: 10, cta: 5 initialized @(225976,0)
GPGPU-Sim uArch: Shader 9 finished CTA #5 (226003,0), 9 CTAs running
Shared mode is : 1
GPGPU-Sim uArch: core:  9, cta: 5 initialized @(226004,0)
GPGPU-Sim uArch: Shader 13 finished CTA #2 (229343,0), 9 CTAs running
Shared mode is : 1
GPGPU-Sim uArch: core: 13, cta: 2 initialized @(229344,0)
GPGPU-Sim uArch: Shader 2 finished CTA #6 (236322,0), 9 CTAs running
Shared mode is : 1
GPGPU-Sim uArch: core:  2, cta: 6 initialized @(236323,0)
GPGPU-Sim uArch: Shader 13 finished CTA #7 (238442,0), 9 CTAs running
Shared mode is : 1
GPGPU-Sim uArch: core: 13, cta: 7 initialized @(238443,0)
GPGPU-Sim uArch: Shader 7 finished CTA #3 (239863,0), 9 CTAs running
Shared mode is : 1
GPGPU-Sim uArch: core:  7, cta: 3 initialized @(239864,0)
GPGPU-Sim uArch: Shader 12 finished CTA #7 (239904,0), 9 CTAs running
Shared mode is : 1
GPGPU-Sim uArch: core: 12, cta: 7 initialized @(239905,0)
GPGPU-Sim uArch: Shader 8 finished CTA #3 (240249,0), 9 CTAs running
Shared mode is : 1
GPGPU-Sim uArch: core:  8, cta: 3 initialized @(240250,0)
GPGPU-Sim uArch: Shader 5 finished CTA #7 (240361,0), 9 CTAs running
Shared mode is : 1
GPGPU-Sim uArch: core:  5, cta: 7 initialized @(240362,0)
GPGPU-Sim uArch: Shader 6 finished CTA #7 (240901,0), 9 CTAs running
Shared mode is : 1
GPGPU-Sim uArch: core:  6, cta: 7 initialized @(240902,0)
GPGPU-Sim uArch: Shader 11 finished CTA #6 (241189,0), 9 CTAs running
Shared mode is : 1
GPGPU-Sim uArch: core: 11, cta: 6 initialized @(241190,0)
GPGPU-Sim uArch: Shader 4 finished CTA #3 (248670,0), 9 CTAs running
Shared mode is : 1
GPGPU-Sim uArch: core:  4, cta: 3 initialized @(248671,0)
GPGPU-Sim uArch: Shader 0 finished CTA #5 (258691,0), 9 CTAs running
Shared mode is : 1
GPGPU-Sim uArch: core:  0, cta: 5 initialized @(258692,0)
GPGPU-Sim uArch: Shader 3 finished CTA #7 (262087,0), 9 CTAs running
Shared mode is : 1
GPGPU-Sim uArch: core:  3, cta: 7 initialized @(262088,0)
GPGPU-Sim uArch: Shader 1 finished CTA #6 (267151,0), 9 CTAs running
Shared mode is : 1
GPGPU-Sim uArch: core:  1, cta: 6 initialized @(267152,0)
GPGPU-Sim uArch: Shader 9 finished CTA #6 (273496,0), 9 CTAs running
Shared mode is : 1
GPGPU-Sim uArch: core:  9, cta: 6 initialized @(273497,0)
GPGPU-Sim uArch: Shader 10 finished CTA #6 (273630,0), 9 CTAs running
Shared mode is : 1
GPGPU-Sim uArch: core: 10, cta: 6 initialized @(273631,0)
GPGPU-Sim uArch: Shader 2 finished CTA #7 (292617,0), 9 CTAs running
Shared mode is : 1
GPGPU-Sim uArch: core:  2, cta: 7 initialized @(292618,0)
GPGPU-Sim uArch: Shader 8 finished CTA #4 (294107,0), 9 CTAs running
Shared mode is : 1
GPGPU-Sim uArch: core:  8, cta: 4 initialized @(294108,0)
GPGPU-Sim uArch: Shader 4 finished CTA #4 (294801,0), 9 CTAs running
Shared mode is : 1
GPGPU-Sim uArch: core:  4, cta: 4 initialized @(294802,0)
GPGPU-Sim uArch: Shader 0 finished CTA #6 (302616,0), 9 CTAs running
Shared mode is : 1
GPGPU-Sim uArch: core:  0, cta: 6 initialized @(302617,0)
GPGPU-Sim uArch: Shader 11 finished CTA #7 (305603,0), 9 CTAs running
Shared mode is : 1
GPGPU-Sim uArch: core: 11, cta: 7 initialized @(305604,0)
GPGPU-Sim uArch: Shader 5 finished CTA #8 (313676,0), 9 CTAs running
Shared mode is : 1
GPGPU-Sim uArch: core:  5, cta: 8 initialized @(313677,0)
GPGPU-Sim uArch: Shader 6 finished CTA #8 (314853,0), 9 CTAs running
Shared mode is : 1
GPGPU-Sim uArch: core:  6, cta: 8 initialized @(314854,0)
GPGPU-Sim uArch: Shader 7 finished CTA #8 (317829,0), 9 CTAs running
Shared mode is : 1
GPGPU-Sim uArch: core:  7, cta: 8 initialized @(317830,0)
GPGPU-Sim uArch: Shader 12 finished CTA #8 (319945,0), 9 CTAs running
Shared mode is : 1
GPGPU-Sim uArch: core: 12, cta: 8 initialized @(319946,0)
GPGPU-Sim uArch: Shader 13 finished CTA #8 (319992,0), 9 CTAs running
Shared mode is : 1
GPGPU-Sim uArch: core: 13, cta: 8 initialized @(319993,0)
GPGPU-Sim uArch: Shader 4 finished CTA #0 (336916,0), 9 CTAs running
Shared mode is : 1
GPGPU-Sim uArch: core:  4, cta: 0 initialized @(336917,0)
GPGPU-Sim uArch: Shader 3 finished CTA #8 (336964,0), 9 CTAs running
Shared mode is : 1
GPGPU-Sim uArch: core:  3, cta: 8 initialized @(336965,0)
GPGPU-Sim uArch: Shader 2 finished CTA #0 (337784,0), 9 CTAs running
Shared mode is : 1
GPGPU-Sim uArch: core:  2, cta: 0 initialized @(337785,0)
GPGPU-Sim uArch: Shader 3 finished CTA #0 (337851,0), 9 CTAs running
Shared mode is : 1
GPGPU-Sim uArch: core:  3, cta: 0 initialized @(337852,0)
GPGPU-Sim uArch: Shader 1 finished CTA #0 (338519,0), 9 CTAs running
Shared mode is : 1
GPGPU-Sim uArch: core:  1, cta: 0 initialized @(338520,0)
GPGPU-Sim uArch: Shader 10 finished CTA #7 (338837,0), 9 CTAs running
Shared mode is : 1
GPGPU-Sim uArch: core: 10, cta: 7 initialized @(338838,0)
GPGPU-Sim uArch: Shader 10 finished CTA #0 (339619,0), 9 CTAs running
Shared mode is : 1
GPGPU-Sim uArch: core: 10, cta: 0 initialized @(339620,0)
GPGPU-Sim uArch: Shader 9 finished CTA #7 (340091,0), 9 CTAs running
Shared mode is : 1
GPGPU-Sim uArch: core:  9, cta: 7 initialized @(340092,0)
GPGPU-Sim uArch: Shader 9 finished CTA #0 (340434,0), 9 CTAs running
Shared mode is : 1
GPGPU-Sim uArch: core:  9, cta: 0 initialized @(340435,0)
GPGPU-Sim uArch: Shader 12 finished CTA #0 (340878,0), 9 CTAs running
Shared mode is : 1
GPGPU-Sim uArch: core: 12, cta: 0 initialized @(340879,0)
GPGPU-Sim uArch: Shader 11 finished CTA #0 (341017,0), 9 CTAs running
Shared mode is : 1
GPGPU-Sim uArch: core: 11, cta: 0 initialized @(341018,0)
GPGPU-Sim uArch: Shader 5 finished CTA #0 (343452,0), 9 CTAs running
Shared mode is : 1
GPGPU-Sim uArch: core:  5, cta: 0 initialized @(343453,0)
GPGPU-Sim uArch: Shader 6 finished CTA #0 (343862,0), 9 CTAs running
Shared mode is : 1
GPGPU-Sim uArch: core:  6, cta: 0 initialized @(343863,0)
GPGPU-Sim uArch: Shader 8 finished CTA #0 (344881,0), 9 CTAs running
Shared mode is : 1
GPGPU-Sim uArch: core:  8, cta: 0 initialized @(344882,0)
GPGPU-Sim uArch: Shader 7 finished CTA #0 (345908,0), 9 CTAs running
Shared mode is : 1
GPGPU-Sim uArch: core:  7, cta: 0 initialized @(345909,0)
GPGPU-Sim uArch: Shader 1 finished CTA #7 (348675,0), 9 CTAs running
Shared mode is : 1
GPGPU-Sim uArch: core:  1, cta: 7 initialized @(348676,0)
GPGPU-Sim uArch: Shader 13 finished CTA #0 (348746,0), 9 CTAs running
Shared mode is : 1
GPGPU-Sim uArch: core: 13, cta: 0 initialized @(348747,0)
GPGPU-Sim uArch: Shader 1 finished CTA #1 (349031,0), 9 CTAs running
Shared mode is : 1
GPGPU-Sim uArch: core:  1, cta: 1 initialized @(349032,0)
GPGPU-Sim uArch: Shader 5 finished CTA #1 (350019,0), 9 CTAs running
Shared mode is : 1
GPGPU-Sim uArch: core:  5, cta: 1 initialized @(350020,0)
GPGPU-Sim uArch: Shader 6 finished CTA #1 (350273,0), 9 CTAs running
Shared mode is : 1
GPGPU-Sim uArch: core:  6, cta: 1 initialized @(350274,0)
GPGPU-Sim uArch: Shader 2 finished CTA #1 (350382,0), 9 CTAs running
Shared mode is : 1
GPGPU-Sim uArch: core:  2, cta: 1 initialized @(350383,0)
GPGPU-Sim uArch: Shader 4 finished CTA #1 (350850,0), 9 CTAs running
Shared mode is : 1
GPGPU-Sim uArch: core:  4, cta: 1 initialized @(350851,0)
GPGPU-Sim uArch: Shader 0 finished CTA #0 (351850,0), 9 CTAs running
Shared mode is : 1
GPGPU-Sim uArch: core:  0, cta: 0 initialized @(351851,0)
GPGPU-Sim uArch: Shader 10 finished CTA #1 (359927,0), 9 CTAs running
Shared mode is : 1
GPGPU-Sim uArch: core: 10, cta: 1 initialized @(359928,0)
GPGPU-Sim uArch: Shader 9 finished CTA #1 (360194,0), 9 CTAs running
Shared mode is : 1
GPGPU-Sim uArch: core:  9, cta: 1 initialized @(360195,0)
GPGPU-Sim uArch: Shader 7 finished CTA #1 (361475,0), 9 CTAs running
Shared mode is : 1
GPGPU-Sim uArch: core:  7, cta: 1 initialized @(361476,0)
GPGPU-Sim uArch: Shader 8 finished CTA #1 (361786,0), 9 CTAs running
Shared mode is : 1
GPGPU-Sim uArch: core:  8, cta: 1 initialized @(361787,0)
GPGPU-Sim uArch: Shader 3 finished CTA #1 (373497,0), 9 CTAs running
Shared mode is : 1
GPGPU-Sim uArch: core:  3, cta: 1 initialized @(373498,0)
GPGPU-Sim uArch: Shader 0 finished CTA #1 (375694,0), 9 CTAs running
Shared mode is : 1
GPGPU-Sim uArch: core:  0, cta: 1 initialized @(375695,0)
GPGPU-Sim uArch: Shader 13 finished CTA #1 (376493,0), 9 CTAs running
Shared mode is : 1
GPGPU-Sim uArch: core: 13, cta: 1 initialized @(376494,0)
GPGPU-Sim uArch: Shader 11 finished CTA #1 (377667,0), 9 CTAs running
Shared mode is : 1
GPGPU-Sim uArch: core: 11, cta: 1 initialized @(377668,0)
GPGPU-Sim uArch: Shader 12 finished CTA #1 (379460,0), 9 CTAs running
Shared mode is : 1
GPGPU-Sim uArch: core: 12, cta: 1 initialized @(379461,0)
GPGPU-Sim uArch: Shader 0 finished CTA #7 (391167,0), 9 CTAs running
Shared mode is : 1
GPGPU-Sim uArch: core:  0, cta: 7 initialized @(391168,0)
GPGPU-Sim uArch: Shader 2 finished CTA #8 (401752,0), 9 CTAs running
Shared mode is : 1
GPGPU-Sim uArch: core:  2, cta: 8 initialized @(401753,0)
GPGPU-Sim uArch: Shader 11 finished CTA #8 (415503,0), 9 CTAs running
Shared mode is : 1
GPGPU-Sim uArch: core: 11, cta: 8 initialized @(415504,0)
GPGPU-Sim uArch: Shader 7 finished CTA #6 (435869,0), 9 CTAs running
Shared mode is : 1
GPGPU-Sim uArch: core:  7, cta: 6 initialized @(435870,0)
GPGPU-Sim uArch: Shader 12 finished CTA #2 (449065,0), 9 CTAs running
Shared mode is : 1
GPGPU-Sim uArch: core: 12, cta: 2 initialized @(449066,0)
GPGPU-Sim uArch: Shader 12 finished CTA #9 (449643,0), 9 CTAs running
Shared mode is : 1
GPGPU-Sim uArch: core: 12, cta: 9 initialized @(449644,0)
GPGPU-Sim uArch: Shader 5 finished CTA #3 (449801,0), 9 CTAs running
Shared mode is : 1
GPGPU-Sim uArch: core:  5, cta: 3 initialized @(449802,0)
GPGPU-Sim uArch: Shader 6 finished CTA #3 (450735,0), 9 CTAs running
Shared mode is : 1
GPGPU-Sim uArch: core:  6, cta: 3 initialized @(450736,0)
GPGPU-Sim uArch: Shader 8 finished CTA #6 (455610,0), 9 CTAs running
Shared mode is : 1
GPGPU-Sim uArch: core:  8, cta: 6 initialized @(455611,0)
GPGPU-Sim uArch: Shader 3 finished CTA #2 (457722,0), 9 CTAs running
Shared mode is : 1
GPGPU-Sim uArch: core:  3, cta: 2 initialized @(457723,0)
GPGPU-Sim uArch: Shader 13 finished CTA #3 (459249,0), 9 CTAs running
Shared mode is : 1
GPGPU-Sim uArch: core: 13, cta: 3 initialized @(459250,0)
GPGPU-Sim uArch: Shader 4 finished CTA #6 (460667,0), 9 CTAs running
Shared mode is : 1
GPGPU-Sim uArch: core:  4, cta: 6 initialized @(460668,0)
GPGPU-Sim uArch: Shader 5 finished CTA #9 (465159,0), 9 CTAs running
Shared mode is : 1
GPGPU-Sim uArch: core:  5, cta: 9 initialized @(465160,0)
GPGPU-Sim uArch: Shader 4 finished CTA #9 (467447,0), 9 CTAs running
Shared mode is : 1
GPGPU-Sim uArch: core:  4, cta: 9 initialized @(467448,0)
GPGPU-Sim uArch: Shader 6 finished CTA #6 (470944,0), 9 CTAs running
Shared mode is : 1
GPGPU-Sim uArch: core:  6, cta: 6 initialized @(470945,0)
GPGPU-Sim uArch: Shader 11 finished CTA #2 (471732,0), 9 CTAs running
GPGPU-Sim uArch: Shader 5 finished CTA #6 (473073,0), 9 CTAs running
GPGPU-Sim uArch: Shader 13 finished CTA #9 (474132,0), 9 CTAs running
GPGPU-Sim uArch: Shader 2 finished CTA #2 (474473,0), 9 CTAs running
GPGPU-Sim uArch: Shader 6 finished CTA #9 (477566,0), 9 CTAs running
GPGPU-Sim uArch: Shader 7 finished CTA #9 (486247,0), 9 CTAs running
GPGPU-Sim uArch: Shader 12 finished CTA #3 (498380,0), 9 CTAs running
GPGPU-Sim uArch: Shader 8 finished CTA #9 (498499,0), 9 CTAs running
GPGPU-Sim uArch: Shader 9 finished CTA #2 (500536,0), 9 CTAs running
GPGPU-Sim uArch: Shader 10 finished CTA #2 (500673,0), 9 CTAs running
GPGPU-Sim uArch: Shader 1 finished CTA #2 (503626,0), 9 CTAs running
GPGPU-Sim uArch: Shader 8 finished CTA #7 (504076,0), 8 CTAs running
GPGPU-Sim uArch: Shader 0 finished CTA #2 (507656,0), 9 CTAs running
GPGPU-Sim uArch: Shader 9 finished CTA #0 (515541,0), 8 CTAs running
GPGPU-Sim uArch: Shader 12 finished CTA #0 (516463,0), 8 CTAs running
GPGPU-Sim uArch: Shader 7 finished CTA #0 (516681,0), 8 CTAs running
GPGPU-Sim uArch: Shader 8 finished CTA #0 (517239,0), 7 CTAs running
GPGPU-Sim uArch: Shader 11 finished CTA #0 (517438,0), 8 CTAs running
GPGPU-Sim uArch: Shader 6 finished CTA #0 (517717,0), 8 CTAs running
GPGPU-Sim uArch: Shader 5 finished CTA #0 (517903,0), 8 CTAs running
GPGPU-Sim uArch: Shader 10 finished CTA #8 (518314,0), 8 CTAs running
GPGPU-Sim uArch: Shader 10 finished CTA #0 (519030,0), 7 CTAs running
GPGPU-Sim uArch: Shader 4 finished CTA #0 (524707,0), 9 CTAs running
GPGPU-Sim uArch: Shader 7 finished CTA #4 (527710,0), 7 CTAs running
GPGPU-Sim uArch: Shader 2 finished CTA #0 (527964,0), 8 CTAs running
GPGPU-Sim uArch: Shader 3 finished CTA #0 (528377,0), 9 CTAs running
GPGPU-Sim uArch: Shader 1 finished CTA #0 (529269,0), 8 CTAs running
GPGPU-Sim uArch: Shader 4 finished CTA #7 (529450,0), 8 CTAs running
GPGPU-Sim uArch: Shader 0 finished CTA #0 (529678,0), 8 CTAs running
GPGPU-Sim uArch: Shader 13 finished CTA #0 (535377,0), 8 CTAs running
GPGPU-Sim uArch: Shader 7 finished CTA #7 (535447,0), 6 CTAs running
GPGPU-Sim uArch: Shader 1 finished CTA #1 (535598,0), 7 CTAs running
GPGPU-Sim uArch: Shader 3 finished CTA #9 (536056,0), 8 CTAs running
GPGPU-Sim uArch: Shader 4 finished CTA #1 (536831,0), 7 CTAs running
GPGPU-Sim uArch: Shader 6 finished CTA #1 (536931,0), 7 CTAs running
GPGPU-Sim uArch: Shader 5 finished CTA #1 (537025,0), 7 CTAs running
GPGPU-Sim uArch: Shader 2 finished CTA #1 (537135,0), 7 CTAs running
GPGPU-Sim uArch: Shader 3 finished CTA #3 (540672,0), 7 CTAs running
GPGPU-Sim uArch: Shader 10 finished CTA #1 (540804,0), 6 CTAs running
GPGPU-Sim uArch: Shader 9 finished CTA #1 (541072,0), 7 CTAs running
GPGPU-Sim uArch: Shader 7 finished CTA #1 (542484,0), 5 CTAs running
GPGPU-Sim uArch: Shader 2 finished CTA #3 (546634,0), 6 CTAs running
GPGPU-Sim uArch: Shader 8 finished CTA #1 (547802,0), 6 CTAs running
GPGPU-Sim uArch: Shader 13 finished CTA #6 (550223,0), 7 CTAs running
GPGPU-Sim uArch: Shader 0 finished CTA #8 (551732,0), 7 CTAs running
GPGPU-Sim uArch: Shader 1 finished CTA #8 (555012,0), 6 CTAs running
GPGPU-Sim uArch: Shader 6 finished CTA #4 (555796,0), 6 CTAs running
GPGPU-Sim uArch: Shader 5 finished CTA #4 (555995,0), 6 CTAs running
GPGPU-Sim uArch: Shader 9 finished CTA #8 (556999,0), 6 CTAs running
GPGPU-Sim uArch: Shader 11 finished CTA #1 (557298,0), 7 CTAs running
GPGPU-Sim uArch: Shader 13 finished CTA #1 (557902,0), 6 CTAs running
GPGPU-Sim uArch: Shader 0 finished CTA #1 (558435,0), 6 CTAs running
GPGPU-Sim uArch: Shader 11 finished CTA #3 (562745,0), 6 CTAs running
GPGPU-Sim uArch: Shader 10 finished CTA #3 (565577,0), 5 CTAs running
GPGPU-Sim uArch: Shader 9 finished CTA #3 (566109,0), 5 CTAs running
GPGPU-Sim uArch: Shader 13 finished CTA #4 (571563,0), 5 CTAs running
GPGPU-Sim uArch: Shader 12 finished CTA #1 (575076,0), 7 CTAs running
GPGPU-Sim uArch: Shader 10 finished CTA #9 (576257,0), 4 CTAs running
GPGPU-Sim uArch: Shader 3 finished CTA #1 (577873,0), 6 CTAs running
GPGPU-Sim uArch: Shader 1 finished CTA #3 (580459,0), 5 CTAs running
GPGPU-Sim uArch: Shader 8 finished CTA #8 (586342,0), 5 CTAs running
GPGPU-Sim uArch: Shader 12 finished CTA #4 (588365,0), 6 CTAs running
GPGPU-Sim uArch: Shader 4 finished CTA #8 (590349,0), 6 CTAs running
GPGPU-Sim uArch: Shader 1 finished CTA #9 (592387,0), 4 CTAs running
GPGPU-Sim uArch: Shader 2 finished CTA #9 (593907,0), 5 CTAs running
GPGPU-Sim uArch: Shader 9 finished CTA #9 (598134,0), 4 CTAs running
GPGPU-Sim uArch: Shader 11 finished CTA #9 (601672,0), 5 CTAs running
GPGPU-Sim uArch: Shader 0 finished CTA #9 (603782,0), 5 CTAs running
GPGPU-Sim uArch: Shader 0 finished CTA #3 (604649,0), 4 CTAs running
GPGPU-Sim uArch: Shader 3 finished CTA #4 (619035,0), 5 CTAs running
GPGPU-Sim uArch: Shader 2 finished CTA #4 (628051,0), 4 CTAs running
GPGPU-Sim uArch: Shader 11 finished CTA #4 (636915,0), 4 CTAs running
GPGPU-Sim uArch: Shader 4 finished CTA #5 (655907,0), 5 CTAs running
GPGPU-Sim uArch: Shader 6 finished CTA #5 (661378,0), 5 CTAs running
GPGPU-Sim uArch: Shader 7 finished CTA #5 (661949,0), 4 CTAs running
GPGPU-Sim uArch: Shader 5 finished CTA #5 (662002,0), 5 CTAs running
GPGPU-Sim uArch: Shader 12 finished CTA #5 (662734,0), 5 CTAs running
GPGPU-Sim uArch: Shader 8 finished CTA #5 (669492,0), 4 CTAs running
GPGPU-Sim uArch: Shader 7 finished CTA #2 (670763,0), 3 CTAs running
GPGPU-Sim uArch: Shader 8 finished CTA #2 (670771,0), 3 CTAs running
GPGPU-Sim uArch: Shader 13 finished CTA #5 (675456,0), 4 CTAs running
GPGPU-Sim uArch: Shader 6 finished CTA #2 (677894,0), 4 CTAs running
GPGPU-Sim uArch: Shader 6 finished CTA #7 (680563,0), 3 CTAs running
GPGPU-Sim uArch: Shader 5 finished CTA #7 (681727,0), 4 CTAs running
GPGPU-Sim uArch: Shader 5 finished CTA #2 (682573,0), 3 CTAs running
GPGPU-Sim uArch: Shader 12 finished CTA #6 (683384,0), 4 CTAs running
GPGPU-Sim uArch: Shader 4 finished CTA #2 (685269,0), 4 CTAs running
GPGPU-Sim uArch: Shader 10 finished CTA #4 (693616,0), 3 CTAs running
GPGPU-Sim uArch: Shader 2 finished CTA #6 (693812,0), 3 CTAs running
GPGPU-Sim uArch: Shader 9 finished CTA #6 (693918,0), 3 CTAs running
GPGPU-Sim uArch: Shader 10 finished CTA #6 (694031,0), 2 CTAs running
GPGPU-Sim uArch: Shader 1 finished CTA #6 (695919,0), 3 CTAs running
GPGPU-Sim uArch: Shader 8 finished CTA #3 (704757,0), 2 CTAs running
GPGPU-Sim uArch: Shader 11 finished CTA #6 (705219,0), 3 CTAs running
GPGPU-Sim uArch: Shader 12 finished CTA #7 (706289,0), 3 CTAs running
GPGPU-Sim uArch: Shader 13 finished CTA #7 (706707,0), 3 CTAs running
GPGPU-Sim uArch: Shader 3 finished CTA #6 (708743,0), 4 CTAs running
GPGPU-Sim uArch: Shader 9 finished CTA #4 (714508,0), 2 CTAs running
GPGPU-Sim uArch: Shader 4 finished CTA #3 (718420,0), 3 CTAs running
GPGPU-Sim uArch: Shader 0 finished CTA #4 (718618,0), 3 CTAs running
GPGPU-Sim uArch: Shader 7 finished CTA #3 (720233,0), 2 CTAs running
GPGPU-Sim uArch: Shader 6 finished CTA #8 (722150,0), 2 CTAs running
GPGPU-Sim uArch: Shader 5 finished CTA #8 (722257,0), 2 CTAs running
GPGPU-Sim uArch: Shader 13 finished CTA #2 (722591,0), 2 CTAs running
GPGPU-Sim uArch: Shader 7 finished CTA #8 (723909,0), 1 CTAs running
GPGPU-Sim uArch: Shader 0 finished CTA #6 (723945,0), 2 CTAs running
GPGPU-Sim uArch: Shader 3 finished CTA #5 (724877,0), 3 CTAs running
GPGPU-Sim uArch: Shader 1 finished CTA #4 (725078,0), 2 CTAs running
GPGPU-Sim uArch: Shader 2 finished CTA #7 (727856,0), 2 CTAs running
GPGPU-Sim uArch: Shader 10 finished CTA #5 (731334,0), 1 CTAs running
GPGPU-Sim uArch: Shader 10 finished CTA #7 (738017,0), 0 CTAs running
GPGPU-Sim uArch: Shader 10 empty (release kernel 1 '_Z13GPU_laplace3diiiiPfS_').
GPGPU-Sim uArch: Shader 9 finished CTA #5 (743476,0), 1 CTAs running
GPGPU-Sim uArch: Shader 2 finished CTA #5 (746248,0), 1 CTAs running
GPGPU-Sim uArch: Shader 3 finished CTA #7 (746664,0), 2 CTAs running
GPGPU-Sim uArch: Shader 9 finished CTA #7 (746848,0), 0 CTAs running
GPGPU-Sim uArch: Shader 9 empty (release kernel 1 '_Z13GPU_laplace3diiiiPfS_').
GPGPU-Sim uArch: Shader 1 finished CTA #5 (747344,0), 1 CTAs running
GPGPU-Sim uArch: Shader 13 finished CTA #8 (748205,0), 1 CTAs running
GPGPU-Sim uArch: Shader 12 finished CTA #8 (753334,0), 2 CTAs running
GPGPU-Sim uArch: Shader 8 finished CTA #4 (755312,0), 1 CTAs running
GPGPU-Sim uArch: Shader 4 finished CTA #4 (755628,0), 2 CTAs running
GPGPU-Sim uArch: Shader 11 finished CTA #7 (756362,0), 2 CTAs running
GPGPU-Sim uArch: Shader 11 finished CTA #5 (757229,0), 1 CTAs running
GPGPU-Sim uArch: Shader 0 finished CTA #5 (761707,0), 1 CTAs running
GPGPU-Sim uArch: Shader 1 finished CTA #7 (763530,0), 0 CTAs running
GPGPU-Sim uArch: Shader 1 empty (release kernel 1 '_Z13GPU_laplace3diiiiPfS_').
GPGPU-Sim uArch: Shader 0 finished CTA #7 (772831,0), 0 CTAs running
GPGPU-Sim uArch: Shader 0 empty (release kernel 1 '_Z13GPU_laplace3diiiiPfS_').
GPGPU-Sim uArch: Shader 2 finished CTA #8 (783669,0), 0 CTAs running
GPGPU-Sim uArch: Shader 2 empty (release kernel 1 '_Z13GPU_laplace3diiiiPfS_').
GPGPU-Sim uArch: Shader 3 finished CTA #8 (788909,0), 1 CTAs running
GPGPU-Sim uArch: Shader 6 finished CTA #3 (793301,0), 1 CTAs running
GPGPU-Sim uArch: Shader 8 finished CTA #6 (793387,0), 0 CTAs running
GPGPU-Sim uArch: Shader 8 empty (release kernel 1 '_Z13GPU_laplace3diiiiPfS_').
GPGPU-Sim uArch: Shader 11 finished CTA #8 (793926,0), 0 CTAs running
GPGPU-Sim uArch: Shader 11 empty (release kernel 1 '_Z13GPU_laplace3diiiiPfS_').
GPGPU-Sim uArch: Shader 7 finished CTA #6 (794079,0), 0 CTAs running
GPGPU-Sim uArch: Shader 7 empty (release kernel 1 '_Z13GPU_laplace3diiiiPfS_').
GPGPU-Sim uArch: Shader 6 finished CTA #6 (795657,0), 0 CTAs running
GPGPU-Sim uArch: Shader 6 empty (release kernel 1 '_Z13GPU_laplace3diiiiPfS_').
GPGPU-Sim uArch: Shader 4 finished CTA #9 (795733,0), 1 CTAs running
GPGPU-Sim uArch: Shader 5 finished CTA #9 (795939,0), 1 CTAs running
GPGPU-Sim uArch: Shader 5 finished CTA #3 (799988,0), 0 CTAs running
GPGPU-Sim uArch: Shader 5 empty (release kernel 1 '_Z13GPU_laplace3diiiiPfS_').
GPGPU-Sim uArch: Shader 12 finished CTA #9 (802603,0), 1 CTAs running
GPGPU-Sim uArch: Shader 12 finished CTA #2 (812526,0), 0 CTAs running
GPGPU-Sim uArch: Shader 12 empty (release kernel 1 '_Z13GPU_laplace3diiiiPfS_').
GPGPU-Sim uArch: Shader 4 finished CTA #6 (813832,0), 0 CTAs running
GPGPU-Sim uArch: Shader 4 empty (release kernel 1 '_Z13GPU_laplace3diiiiPfS_').
GPGPU-Sim uArch: Shader 13 finished CTA #3 (821326,0), 0 CTAs running
GPGPU-Sim uArch: Shader 13 empty (release kernel 1 '_Z13GPU_laplace3diiiiPfS_').
GPGPU-Sim uArch: Shader 3 finished CTA #2 (825654,0), 0 CTAs running
GPGPU-Sim uArch: Shader 3 empty (release kernel 1 '_Z13GPU_laplace3diiiiPfS_').
GPGPU-Sim uArch: GPU detected kernel '_Z13GPU_laplace3diiiiPfS_' finished on shader 3.
kernel_name = _Z13GPU_laplace3diiiiPfS_ 
kernel_launch_uid = 1 
gpu_sim_cycle = 825655
gpu_sim_insn = 356907776
gpu_ipc =     432.2723
gpu_tot_sim_cycle = 825655
gpu_tot_sim_insn = 356907776
gpu_tot_ipc =     432.2723
gpu_tot_issued_cta = 0
gpu_stall_dramfull = 712685
gpu_stall_icnt2sh    = 4059352
gpu_total_sim_rate=608020

========= Core cache stats =========
L1I_cache:
	L1I_total_cache_accesses = 6993824
	L1I_total_cache_misses = 3122
	L1I_total_cache_miss_rate = 0.0004
	L1I_total_cache_pending_hits = 0
	L1I_total_cache_reservation_fails = 4869
L1D_cache:
	L1D_cache_core[0]: Access = 63400, Miss = 63400, Miss_rate = 1.000, Pending_hits = 0, Reservation_fails = 267254
	L1D_cache_core[1]: Access = 63200, Miss = 63200, Miss_rate = 1.000, Pending_hits = 0, Reservation_fails = 261176
	L1D_cache_core[2]: Access = 64100, Miss = 64100, Miss_rate = 1.000, Pending_hits = 0, Reservation_fails = 262298
	L1D_cache_core[3]: Access = 64800, Miss = 64800, Miss_rate = 1.000, Pending_hits = 0, Reservation_fails = 301914
	L1D_cache_core[4]: Access = 68300, Miss = 68300, Miss_rate = 1.000, Pending_hits = 0, Reservation_fails = 273969
	L1D_cache_core[5]: Access = 67600, Miss = 67600, Miss_rate = 1.000, Pending_hits = 0, Reservation_fails = 251359
	L1D_cache_core[6]: Access = 65500, Miss = 65500, Miss_rate = 1.000, Pending_hits = 0, Reservation_fails = 235895
	L1D_cache_core[7]: Access = 65100, Miss = 65098, Miss_rate = 1.000, Pending_hits = 0, Reservation_fails = 251730
	L1D_cache_core[8]: Access = 63900, Miss = 63900, Miss_rate = 1.000, Pending_hits = 0, Reservation_fails = 264184
	L1D_cache_core[9]: Access = 63400, Miss = 63400, Miss_rate = 1.000, Pending_hits = 0, Reservation_fails = 245050
	L1D_cache_core[10]: Access = 61400, Miss = 61400, Miss_rate = 1.000, Pending_hits = 0, Reservation_fails = 225877
	L1D_cache_core[11]: Access = 63400, Miss = 63400, Miss_rate = 1.000, Pending_hits = 0, Reservation_fails = 280402
	L1D_cache_core[12]: Access = 67200, Miss = 67200, Miss_rate = 1.000, Pending_hits = 0, Reservation_fails = 274093
	L1D_cache_core[13]: Access = 63100, Miss = 63100, Miss_rate = 1.000, Pending_hits = 0, Reservation_fails = 259245
	L1D_total_cache_accesses = 904400
	L1D_total_cache_misses = 904398
	L1D_total_cache_miss_rate = 1.0000
	L1D_total_cache_pending_hits = 0
	L1D_total_cache_reservation_fails = 3654446
	L1D_cache_data_port_util = 0.000
	L1D_cache_fill_port_util = 0.063
L1C_cache:
	L1C_total_cache_accesses = 0
	L1C_total_cache_misses = 0
	L1C_total_cache_pending_hits = 0
	L1C_total_cache_reservation_fails = 0
L1T_cache:
	L1T_total_cache_accesses = 0
	L1T_total_cache_misses = 0
	L1T_total_cache_pending_hits = 0
	L1T_total_cache_reservation_fails = 0

Total_core_cache_stats:
	Total_core_cache_stats_breakdown[GLOBAL_ACC_R][HIT] = 2
	Total_core_cache_stats_breakdown[GLOBAL_ACC_R][MISS] = 699598
	Total_core_cache_stats_breakdown[GLOBAL_ACC_R][RESERVATION_FAIL] = 3597853
	Total_core_cache_stats_breakdown[GLOBAL_ACC_W][MISS] = 204800
	Total_core_cache_stats_breakdown[GLOBAL_ACC_W][RESERVATION_FAIL] = 56593
	Total_core_cache_stats_breakdown[INST_ACC_R][HIT] = 6990702
	Total_core_cache_stats_breakdown[INST_ACC_R][MISS] = 3122
	Total_core_cache_stats_breakdown[INST_ACC_R][RESERVATION_FAIL] = 4869
Shader 0 warp_id issue ditsribution:
warp_id:
0, 1, 2, 3, 4, 5, 6, 7, 8, 9, 10, 11, 12, 13, 14, 15, 16, 17, 18, 19, 20, 21, 22, 23, 24, 25, 26, 27, 28, 29, 30, 31, 32, 33, 34, 35, 36, 37, 38, 39, 40, 41, 42, 43, 44, 45, 46, 47, 48, 49, 50, 51, 52, 53, 54, 55, 56, 57, 58, 59, 60, 61, 62, 63, 64, 65, 66, 67, 68, 69, 70, 71, 72, 73, 74, 75, 76, 77, 78, 79, 
distro:
22068, 22068, 22095, 17499, 17499, 17499, 17499, 17499, 22068, 22068, 22095, 17499, 17499, 17499, 17499, 17499, 7256, 7256, 7265, 5733, 5733, 5733, 5733, 5733, 7556, 7556, 7565, 6033, 6033, 6033, 6033, 6033, 14812, 14812, 14830, 11766, 11766, 11766, 11766, 11766, 14512, 14512, 14530, 11466, 11466, 11466, 11466, 11466, 14512, 14512, 14530, 11466, 11466, 11466, 11466, 11466, 14812, 14812, 14830, 11766, 11766, 11766, 11766, 11766, 7256, 7256, 7265, 5733, 5733, 5733, 5733, 5733, 7256, 7256, 7265, 5733, 5733, 5733, 5733, 5733, 
gpgpu_n_tot_thrd_icount = 416711680
gpgpu_n_tot_w_icount = 13022240
gpgpu_n_stall_shd_mem = 4074046
gpgpu_n_mem_read_local = 0
gpgpu_n_mem_write_local = 0
gpgpu_n_mem_read_global = 699598
gpgpu_n_mem_write_global = 204800
gpgpu_n_mem_texture = 0
gpgpu_n_mem_const = 0
gpgpu_n_load_insn  = 8586000
gpgpu_n_store_insn = 6553600
gpgpu_n_shmem_insn = 58069600
gpgpu_n_tex_insn = 0
gpgpu_n_const_mem_insn = 0
gpgpu_n_param_mem_insn = 0
gpgpu_n_shmem_bkconflict = 0
gpgpu_n_cache_bkconflict = 0
gpgpu_n_intrawarp_mshr_merge = 0
gpgpu_n_cmem_portconflict = 0
gpgpu_stall_shd_mem[c_mem][bk_conf] = 0
gpgpu_stall_shd_mem[c_mem][mshr_rc] = 0
gpgpu_stall_shd_mem[c_mem][icnt_rc] = 0
gpgpu_stall_shd_mem[c_mem][data_port_stall] = 0
gpgpu_stall_shd_mem[t_mem][mshr_rc] = 0
gpgpu_stall_shd_mem[t_mem][icnt_rc] = 0
gpgpu_stall_shd_mem[t_mem][data_port_stall] = 0
gpgpu_stall_shd_mem[s_mem][bk_conf] = 0
gpgpu_stall_shd_mem[gl_mem][bk_conf] = 0
gpgpu_stall_shd_mem[gl_mem][coal_stall] = 4074046
gpgpu_stall_shd_mem[gl_mem][data_port_stall] = 0
gpgpu_stall_shd_mem[g_mem_ld][mshr_rc] = 0
gpgpu_stall_shd_mem[g_mem_ld][icnt_rc] = 0
gpgpu_stall_shd_mem[g_mem_ld][wb_icnt_rc] = 0
gpgpu_stall_shd_mem[g_mem_ld][wb_rsrv_fail] = 0
gpgpu_stall_shd_mem[g_mem_st][mshr_rc] = 0
gpgpu_stall_shd_mem[g_mem_st][icnt_rc] = 0
gpgpu_stall_shd_mem[g_mem_st][wb_icnt_rc] = 0
gpgpu_stall_shd_mem[g_mem_st][wb_rsrv_fail] = 0
gpgpu_stall_shd_mem[l_mem_ld][mshr_rc] = 0
gpgpu_stall_shd_mem[l_mem_ld][icnt_rc] = 0
gpgpu_stall_shd_mem[l_mem_ld][wb_icnt_rc] = 0
gpgpu_stall_shd_mem[l_mem_ld][wb_rsrv_fail] = 0
gpgpu_stall_shd_mem[l_mem_st][mshr_rc] = 0
gpgpu_stall_shd_mem[l_mem_st][icnt_rc] = 0
gpgpu_stall_shd_mem[l_mem_ld][wb_icnt_rc] = 0
gpgpu_stall_shd_mem[l_mem_ld][wb_rsrv_fail] = 0
gpu_reg_bank_conflict_stalls = 0
Warp Occupancy Distribution:
Stall:6683507	W0_Idle:136414	W0_Scoreboard:2268407	W1:153600	W2:0	W3:0	W4:0	W5:0	W6:0	W7:0	W8:0	W9:6000	W10:90000	W11:0	W12:768	W13:0	W14:0	W15:0	W16:0	W17:0	W18:18000	W19:0	W20:278192	W21:0	W22:0	W23:0	W24:0	W25:0	W26:0	W27:0	W28:0	W29:0	W30:0	W31:1009656	W32:11466024
traffic_breakdown_coretomem[GLOBAL_ACC_R] = 5596784 {8:699598,}
traffic_breakdown_coretomem[GLOBAL_ACC_W] = 27852800 {136:204800,}
traffic_breakdown_coretomem[INST_ACC_R] = 1120 {8:140,}
traffic_breakdown_memtocore[GLOBAL_ACC_R] = 95145328 {136:699598,}
traffic_breakdown_memtocore[GLOBAL_ACC_W] = 1638400 {8:204800,}
traffic_breakdown_memtocore[INST_ACC_R] = 19040 {136:140,}
Memory Partition 0: 
Cache L2_bank_000:
MSHR contents

Cache L2_bank_001:
MSHR contents

In Dram Latency Queue (total = 0): 
DRAM[0]: 16 bks, busW=4 BL=8 CL=12, tRRD=2 tCCD=6, tRCD=12 tRAS=28 tRP=12 tRC=40
n_cmd=1076941 n_nop=698063 n_act=45164 n_pre=45148 n_req=144283 n_rd=220298 n_write=68268 bw_util=0.5359
n_activity=1016013 dram_eff=0.568
bk0: 11254a 836205i bk1: 12888a 807472i bk2: 14908a 786290i bk3: 14250a 776362i bk4: 13878a 785807i bk5: 13722a 794756i bk6: 12428a 796411i bk7: 14974a 751365i bk8: 14774a 786903i bk9: 14090a 786044i bk10: 12072a 821876i bk11: 12544a 819131i bk12: 13984a 793795i bk13: 15920a 751823i bk14: 15064a 763184i bk15: 13548a 781407i 
dram_util_bins: 0 0 0 0 0 0 0 0 0 0
dram_eff_bins: 0 0 0 0 0 0 0 0 0 0
mrqq: max=16 avg=8.92503
Memory Partition 1: 
Cache L2_bank_002:
MSHR contents

Cache L2_bank_003:
MSHR contents

In Dram Latency Queue (total = 0): 
DRAM[1]: 16 bks, busW=4 BL=8 CL=12, tRRD=2 tCCD=6, tRCD=12 tRAS=28 tRP=12 tRC=40
n_cmd=1076941 n_nop=695681 n_act=45838 n_pre=45822 n_req=144800 n_rd=221332 n_write=68268 bw_util=0.5378
n_activity=1022774 dram_eff=0.5663
bk0: 12588a 814007i bk1: 11604a 821774i bk2: 16994a 752845i bk3: 14004a 795052i bk4: 14558a 777412i bk5: 11818a 819133i bk6: 14344a 758054i bk7: 13710a 775374i bk8: 15802a 766592i bk9: 12568a 817622i bk10: 13122a 814645i bk11: 11524a 829866i bk12: 16740a 750882i bk13: 14034a 783552i bk14: 15396a 762955i bk15: 12526a 804052i 
dram_util_bins: 0 0 0 0 0 0 0 0 0 0
dram_eff_bins: 0 0 0 0 0 0 0 0 0 0
mrqq: max=16 avg=8.40666
Memory Partition 2: 
Cache L2_bank_004:
MSHR contents

Cache L2_bank_005:
MSHR contents

In Dram Latency Queue (total = 0): 
DRAM[2]: 16 bks, busW=4 BL=8 CL=12, tRRD=2 tCCD=6, tRCD=12 tRAS=28 tRP=12 tRC=40
n_cmd=1076941 n_nop=695199 n_act=46621 n_pre=46605 n_req=144258 n_rd=220248 n_write=68268 bw_util=0.5358
n_activity=1017141 dram_eff=0.5673
bk0: 12890a 804745i bk1: 11044a 834141i bk2: 14616a 776251i bk3: 14982a 774690i bk4: 13382a 793833i bk5: 13430a 788373i bk6: 14332a 752963i bk7: 13012a 786815i bk8: 13916a 785259i bk9: 14642a 777109i bk10: 13198a 815137i bk11: 11900a 821563i bk12: 15780a 750027i bk13: 14726a 774590i bk14: 13842a 781114i bk15: 14556a 766816i 
dram_util_bins: 0 0 0 0 0 0 0 0 0 0
dram_eff_bins: 0 0 0 0 0 0 0 0 0 0
mrqq: max=16 avg=9.01423
Memory Partition 3: 
Cache L2_bank_006:
MSHR contents

Cache L2_bank_007:
MSHR contents
MSHR: tag=0x831ff900, atomic=0 1 entries : 0x7f9f135cb7d0 :  mf: uid=11762339, sid03:w22, part=3, addr=0x831ff900, load , size=128, unknown  status = IN_PARTITION_DRAM (825651), 

In Dram Latency Queue (total = 0): 
DRAM[3]: 16 bks, busW=4 BL=8 CL=12, tRRD=2 tCCD=6, tRCD=12 tRAS=28 tRP=12 tRC=40
n_cmd=1076941 n_nop=693837 n_act=46740 n_pre=46724 n_req=144820 n_rd=221372 n_write=68268 bw_util=0.5379
n_activity=1022797 dram_eff=0.5664
bk0: 11490a 822762i bk1: 12704a 803829i bk2: 13762a 797452i bk3: 16574a 751524i bk4: 11954a 812757i bk5: 13930a 780581i bk6: 13132a 778686i bk7: 15328a 739035i bk8: 12758a 815978i bk9: 15630a 761350i bk10: 11946a 828062i bk11: 13024a 813397i bk12: 14194a 786982i bk13: 17426a 737183i bk14: 12538a 803933i bk15: 14982a 763467i 
dram_util_bins: 0 0 0 0 0 0 0 0 0 0
dram_eff_bins: 0 0 0 0 0 0 0 0 0 0
mrqq: max=16 avg=8.44408
Memory Partition 4: 
Cache L2_bank_008:
MSHR contents

Cache L2_bank_009:
MSHR contents

In Dram Latency Queue (total = 0): 
DRAM[4]: 16 bks, busW=4 BL=8 CL=12, tRRD=2 tCCD=6, tRCD=12 tRAS=28 tRP=12 tRC=40
n_cmd=1076941 n_nop=698311 n_act=45061 n_pre=45045 n_req=144262 n_rd=220260 n_write=68264 bw_util=0.5358
n_activity=1015879 dram_eff=0.568
bk0: 11102a 838905i bk1: 13496a 795785i bk2: 15012a 789587i bk3: 14498a 767339i bk4: 13412a 795133i bk5: 13072a 794640i bk6: 12394a 801874i bk7: 15084a 748718i bk8: 14748a 792757i bk9: 13816a 784349i bk10: 12046a 824756i bk11: 12534a 814286i bk12: 14636a 788454i bk13: 15610a 747103i bk14: 14962a 773402i bk15: 13838a 776098i 
dram_util_bins: 0 0 0 0 0 0 0 0 0 0
dram_eff_bins: 0 0 0 0 0 0 0 0 0 0
mrqq: max=16 avg=9.03421
Memory Partition 5: 
Cache L2_bank_010:
MSHR contents

Cache L2_bank_011:
MSHR contents

In Dram Latency Queue (total = 0): 
DRAM[5]: 16 bks, busW=4 BL=8 CL=12, tRRD=2 tCCD=6, tRCD=12 tRAS=28 tRP=12 tRC=40
n_cmd=1076941 n_nop=696703 n_act=45314 n_pre=45298 n_req=144813 n_rd=221362 n_write=68264 bw_util=0.5379
n_activity=1022808 dram_eff=0.5663
bk0: 12656a 816800i bk1: 12186a 814900i bk2: 16760a 761887i bk3: 13828a 789353i bk4: 14112a 786350i bk5: 11370a 822208i bk6: 14436a 761575i bk7: 13566a 769847i bk8: 15606a 775007i bk9: 12572a 811453i bk10: 12948a 820603i bk11: 11608a 825724i bk12: 17636a 745202i bk13: 14300a 776933i bk14: 15414a 771639i bk15: 12364a 802871i 
dram_util_bins: 0 0 0 0 0 0 0 0 0 0
dram_eff_bins: 0 0 0 0 0 0 0 0 0 0
mrqq: max=16 avg=8.40172

========= L2 cache stats =========
L2_cache_bank[0]: Access = 70096, Miss = 54181, Miss_rate = 0.773, Pending_hits = 1515, Reservation_fails = 10143
L2_cache_bank[1]: Access = 80665, Miss = 55968, Miss_rate = 0.694, Pending_hits = 2582, Reservation_fails = 10914
L2_cache_bank[2]: Access = 80696, Miss = 59772, Miss_rate = 0.741, Pending_hits = 1954, Reservation_fails = 15818
L2_cache_bank[3]: Access = 70066, Miss = 50894, Miss_rate = 0.726, Pending_hits = 1693, Reservation_fails = 2129
L2_cache_bank[4]: Access = 80696, Miss = 55978, Miss_rate = 0.694, Pending_hits = 2542, Reservation_fails = 13209
L2_cache_bank[5]: Access = 70066, Miss = 54146, Miss_rate = 0.773, Pending_hits = 1493, Reservation_fails = 13699
L2_cache_bank[6]: Access = 70096, Miss = 50887, Miss_rate = 0.726, Pending_hits = 1693, Reservation_fails = 2024
L2_cache_bank[7]: Access = 80666, Miss = 59799, Miss_rate = 0.741, Pending_hits = 2021, Reservation_fails = 14093
L2_cache_bank[8]: Access = 70094, Miss = 54156, Miss_rate = 0.773, Pending_hits = 1537, Reservation_fails = 13239
L2_cache_bank[9]: Access = 80665, Miss = 55974, Miss_rate = 0.694, Pending_hits = 2614, Reservation_fails = 11989
L2_cache_bank[10]: Access = 80666, Miss = 59784, Miss_rate = 0.741, Pending_hits = 1909, Reservation_fails = 13711
L2_cache_bank[11]: Access = 70066, Miss = 50897, Miss_rate = 0.726, Pending_hits = 1730, Reservation_fails = 2886
L2_total_cache_accesses = 904538
L2_total_cache_misses = 662436
L2_total_cache_miss_rate = 0.7323
L2_total_cache_pending_hits = 23283
L2_total_cache_reservation_fails = 123854
L2_total_cache_breakdown:
	L2_cache_stats_breakdown[GLOBAL_ACC_R][HIT] = 218715
	L2_cache_stats_breakdown[GLOBAL_ACC_R][HIT_RESERVED] = 23257
	L2_cache_stats_breakdown[GLOBAL_ACC_R][MISS] = 457626
	L2_cache_stats_breakdown[GLOBAL_ACC_R][RESERVATION_FAIL] = 95077
	L2_cache_stats_breakdown[GLOBAL_ACC_W][MISS] = 204800
	L2_cache_stats_breakdown[GLOBAL_ACC_W][RESERVATION_FAIL] = 28238
	L2_cache_stats_breakdown[INST_ACC_R][HIT] = 104
	L2_cache_stats_breakdown[INST_ACC_R][HIT_RESERVED] = 26
	L2_cache_stats_breakdown[INST_ACC_R][MISS] = 10
	L2_cache_stats_breakdown[INST_ACC_R][RESERVATION_FAIL] = 539
L2_cache_data_port_util = 0.088
L2_cache_fill_port_util = 0.267

icnt_total_pkts_mem_to_simt=3703490
icnt_total_pkts_simt_to_mem=1723738
LD_mem_lat_dist  0 0 0 0 0 0 0 0 0 0 0 0 0 0 0 0 0 0 0 0 0 0 0 0 0 0 0
ST_mem_lat_dist  0 0 0 0 0 0 0 0 0 0 0 0 0 0 0 0 0 0 0 0 0 0 0 0 0 0 0
----------------------------Interconnect-DETAILS--------------------------------
Class 0:
Packet latency average = 25.1686
	minimum = 6
	maximum = 402
Network latency average = 19.1935
	minimum = 6
	maximum = 360
Slowest packet = 9671
Flit latency average = 15.6693
	minimum = 6
	maximum = 360
Slowest flit = 29071
Fragmentation average = 0.0627127
	minimum = 0
	maximum = 314
Injected packet rate average = 0.0842723
	minimum = 0.0743773 (at node 10)
	maximum = 0.0977357 (at node 16)
Accepted packet rate average = 0.0842723
	minimum = 0.0743773 (at node 10)
	maximum = 0.0977357 (at node 16)
Injected flit rate average = 0.252817
	minimum = 0.14414 (at node 10)
	maximum = 0.40599 (at node 16)
Accepted flit rate average= 0.252817
	minimum = 0.16754 (at node 17)
	maximum = 0.340033 (at node 4)
Injected packet length average = 3
Accepted packet length average = 3
Total in-flight flits = 0 (0 measured)
====== Overall Traffic Statistics ======
====== Traffic class 0 ======
Packet latency average = 25.1686 (1 samples)
	minimum = 6 (1 samples)
	maximum = 402 (1 samples)
Network latency average = 19.1935 (1 samples)
	minimum = 6 (1 samples)
	maximum = 360 (1 samples)
Flit latency average = 15.6693 (1 samples)
	minimum = 6 (1 samples)
	maximum = 360 (1 samples)
Fragmentation average = 0.0627127 (1 samples)
	minimum = 0 (1 samples)
	maximum = 314 (1 samples)
Injected packet rate average = 0.0842723 (1 samples)
	minimum = 0.0743773 (1 samples)
	maximum = 0.0977357 (1 samples)
Accepted packet rate average = 0.0842723 (1 samples)
	minimum = 0.0743773 (1 samples)
	maximum = 0.0977357 (1 samples)
Injected flit rate average = 0.252817 (1 samples)
	minimum = 0.14414 (1 samples)
	maximum = 0.40599 (1 samples)
Accepted flit rate average = 0.252817 (1 samples)
	minimum = 0.16754 (1 samples)
	maximum = 0.340033 (1 samples)
Injected packet size average = 3 (1 samples)
Accepted packet size average = 3 (1 samples)
Hops average = 1 (1 samples)
----------------------------END-of-Interconnect-DETAILS-------------------------


gpgpu_simulation_time = 0 days, 0 hrs, 9 min, 47 sec (587 sec)
gpgpu_simulation_rate = 608020 (inst/sec)
gpgpu_simulation_rate = 1406 (cycle/sec)
GPGPU-Sim: synchronize waiting for inactive GPU simulation
GPGPU-Sim API: Stream Manager State
GPGPU-Sim: detected inactive GPU simulation thread

1x GPU_laplace3d: 586221.375000 (ms) 

Copy u2 to host: 378.033997 (ms) 

1x Gold_laplace3d: 12.995000 (ms) 
 

 rms error = 0.000000 
CUDA_SAFE_CALL( cudaFree(d_u1) );
CUDA_SAFE_CALL( cudaFree(d_u2) );
free(h_u1);
free(h_u2);
free(h_u3);

Press ENTER to exit...
