

        *** GPGPU-Sim Simulator Version 3.2.2  [build 17315] ***


GPGPU-Sim PTX: simulation mode 0 (can change with PTX_SIM_MODE_FUNC environment variable:
               1=functional simulation only, 0=detailed performance simulator)
GPGPU-Sim: Configuration options:

-network_mode                           1 # Interconnection network mode
-inter_config_file   config_fermi_islip.icnt # Interconnection network config file
-gpgpu_ptx_use_cuobjdump                    1 # Use cuobjdump to extract ptx and sass from binaries
-gpgpu_experimental_lib_support                    0 # Try to extract code from cuda libraries [Broken because of unknown cudaGetExportTable]
-gpgpu_ptx_convert_to_ptxplus                    1 # Convert SASS (native ISA) to ptxplus and run ptxplus
-gpgpu_ptx_force_max_capability                   20 # Force maximum compute capability
-gpgpu_ptx_inst_debug_to_file                    0 # Dump executed instructions' debug information to file
-gpgpu_ptx_inst_debug_file       inst_debug.txt # Executed instructions' debug output file
-gpgpu_ptx_inst_debug_thread_uid                    1 # Thread UID for executed instructions' debug output
-gpgpu_simd_model                       1 # 1 = post-dominator
-gpgpu_shader_core_pipeline              3072:32 # shader core pipeline config, i.e., {<nthread>:<warpsize>}
-gpgpu_tex_cache:l1  4:128:24,L:R:m:N,F:128:4,128:2 # per-shader L1 texture cache  (READ-ONLY) config  {<nsets>:<bsize>:<assoc>,<rep>:<wr>:<alloc>:<wr_alloc>,<mshr>:<N>:<merge>,<mq>:<rf>}
-gpgpu_const_cache:l1 64:64:2,L:R:f:N,A:2:32,4 # per-shader L1 constant memory cache  (READ-ONLY) config  {<nsets>:<bsize>:<assoc>,<rep>:<wr>:<alloc>:<wr_alloc>,<mshr>:<N>:<merge>,<mq>} 
-gpgpu_cache:il1     4:128:4,L:R:f:N,A:2:32,4 # shader L1 instruction cache config  {<nsets>:<bsize>:<assoc>,<rep>:<wr>:<alloc>:<wr_alloc>,<mshr>:<N>:<merge>,<mq>} 
-gpgpu_cache:dl1     32:128:4,L:L:m:N,A:32:8,8 # per-shader L1 data cache config  {<nsets>:<bsize>:<assoc>,<rep>:<wr>:<alloc>:<wr_alloc>,<mshr>:<N>:<merge>,<mq> | none}
-gpgpu_cache:dl1PrefL1                 none # per-shader L1 data cache config  {<nsets>:<bsize>:<assoc>,<rep>:<wr>:<alloc>:<wr_alloc>,<mshr>:<N>:<merge>,<mq> | none}
-gpgpu_cache:dl1PreShared                 none # per-shader L1 data cache config  {<nsets>:<bsize>:<assoc>,<rep>:<wr>:<alloc>:<wr_alloc>,<mshr>:<N>:<merge>,<mq> | none}
-gmem_skip_L1D                          0 # global memory access skip L1D cache (implements -Xptxas -dlcm=cg, default=no skip)
-gpgpu_perfect_mem                      0 # enable perfect memory mode (no cache miss)
-n_regfile_gating_group                    4 # group of lanes that should be read/written together)
-gpgpu_clock_gated_reg_file                    0 # enable clock gated reg file for power calculations
-gpgpu_clock_gated_lanes                    0 # enable clock gated lanes for power calculations
-gpgpu_shader_registers                32768 # Number of registers per shader core. Limits number of concurrent CTAs. (default 8192)
-gpgpu_shader_cta                      16 # Maximum number of concurrent CTAs in shader (default 8)
-gpgpu_n_clusters                      14 # number of processing clusters
-gpgpu_n_cores_per_cluster                    1 # number of simd cores per cluster
-gpgpu_n_cluster_ejection_buffer_size                    8 # number of packets in ejection buffer
-gpgpu_n_ldst_response_buffer_size                    2 # number of response packets in ld/st unit ejection buffer
-gpgpu_shmem_size                   16384 # Size of shared memory per shader core (default 16kB)
-gpgpu_shmem_size                   49152 # Size of shared memory per shader core (default 16kB)
-gpgpu_shmem_size_PrefL1                16384 # Size of shared memory per shader core (default 16kB)
-gpgpu_shmem_size_PrefShared                16384 # Size of shared memory per shader core (default 16kB)
-gpgpu_shmem_num_banks                   32 # Number of banks in the shared memory in each shader core (default 16)
-gpgpu_shmem_limited_broadcast                    0 # Limit shared memory to do one broadcast per cycle (default on)
-gpgpu_shmem_warp_parts                    1 # Number of portions a warp is divided into for shared memory bank conflict check 
-gpgpu_warpdistro_shader                   -1 # Specify which shader core to collect the warp size distribution from
-gpgpu_warp_issue_shader                    0 # Specify which shader core to collect the warp issue distribution from
-gpgpu_local_mem_map                    1 # Mapping from local memory space address to simulated GPU physical address space (default = enabled)
-gpgpu_num_reg_banks                   16 # Number of register banks (default = 8)
-gpgpu_reg_bank_use_warp_id                    0 # Use warp ID in mapping registers to banks (default = off)
-gpgpu_operand_collector_num_units_sp                    6 # number of collector units (default = 4)
-gpgpu_operand_collector_num_units_sfu                    8 # number of collector units (default = 4)
-gpgpu_operand_collector_num_units_mem                    2 # number of collector units (default = 2)
-gpgpu_operand_collector_num_units_gen                    0 # number of collector units (default = 0)
-gpgpu_operand_collector_num_in_ports_sp                    2 # number of collector unit in ports (default = 1)
-gpgpu_operand_collector_num_in_ports_sfu                    1 # number of collector unit in ports (default = 1)
-gpgpu_operand_collector_num_in_ports_mem                    1 # number of collector unit in ports (default = 1)
-gpgpu_operand_collector_num_in_ports_gen                    0 # number of collector unit in ports (default = 0)
-gpgpu_operand_collector_num_out_ports_sp                    2 # number of collector unit in ports (default = 1)
-gpgpu_operand_collector_num_out_ports_sfu                    1 # number of collector unit in ports (default = 1)
-gpgpu_operand_collector_num_out_ports_mem                    1 # number of collector unit in ports (default = 1)
-gpgpu_operand_collector_num_out_ports_gen                    0 # number of collector unit in ports (default = 0)
-gpgpu_coalesce_arch                   13 # Coalescing arch (default = 13, anything else is off for now)
-gpgpu_num_sched_per_core                    2 # Number of warp schedulers per core
-gpgpu_max_insn_issue_per_warp                    1 # Max number of instructions that can be issued per warp in one cycle by scheduler
-gpgpu_simt_core_sim_order                    1 # Select the simulation order of cores in a cluster (0=Fix, 1=Round-Robin)
-gpgpu_pipeline_widths        2,1,1,2,1,1,2 # Pipeline widths ID_OC_SP,ID_OC_SFU,ID_OC_MEM,OC_EX_SP,OC_EX_SFU,OC_EX_MEM,EX_WB
-gpgpu_num_sp_units                     2 # Number of SP units (default=1)
-gpgpu_num_sfu_units                    1 # Number of SF units (default=1)
-gpgpu_num_mem_units                    1 # Number if ldst units (default=1) WARNING: not hooked up to anything
-gpgpu_scheduler                      owf # Scheduler configuration: < lrr | gto | two_level_active > If two_level_active:<num_active_warps>:<inner_prioritization>:<outer_prioritization>For complete list of prioritization values see shader.h enum scheduler_prioritization_typeDefault: gto
-gpgpu_reg_sharing_approach                    4 # Approach used register sharing (default=3)
-gpgpu_reg_share_thersh_hold                  0.1 # Thresh hold factor used for sharing (default=0.5)
-gpgpu_dram_scheduler                    1 # 0 = fifo, 1 = FR-FCFS (defaul)
-gpgpu_dram_partition_queues              8:8:8:8 # i2$:$2d:d2$:$2i
-l2_ideal                               0 # Use a ideal L2 cache that always hit
-gpgpu_cache:dl2     64:128:8,L:B:m:W,A:32:4,4:0,32 # unified banked L2 data cache config  {<nsets>:<bsize>:<assoc>,<rep>:<wr>:<alloc>:<wr_alloc>,<mshr>:<N>:<merge>,<mq>}
-gpgpu_cache:dl2_texture_only                    0 # L2 cache used for texture only
-gpgpu_n_mem                            6 # number of memory modules (e.g. memory controllers) in gpu
-gpgpu_n_sub_partition_per_mchannel                    2 # number of memory subpartition in each memory module
-gpgpu_n_mem_per_ctrlr                    2 # number of memory chips per memory controller
-gpgpu_memlatency_stat                    0 # track and display latency statistics 0x2 enables MC, 0x4 enables queue logs
-gpgpu_frfcfs_dram_sched_queue_size                   16 # 0 = unlimited (default); # entries per chip
-gpgpu_dram_return_queue_size                  114 # 0 = unlimited (default); # entries per chip
-gpgpu_dram_buswidth                    4 # default = 4 bytes (8 bytes per cycle at DDR)
-gpgpu_dram_burst_length                    8 # Burst length of each DRAM request (default = 4 data bus cycle)
-dram_data_command_freq_ratio                    4 # Frequency ratio between DRAM data bus and command bus (default = 2 times, i.e. DDR)
-gpgpu_dram_timing_opt nbk=16:CCD=2:RRD=6:RCD=12:RAS=28:RP=12:RC=40: CL=12:WL=4:CDLR=5:WR=12:nbkgrp=4:CCDL=3:RTPL=2 # DRAM timing parameters = {nbk:tCCD:tRRD:tRCD:tRAS:tRP:tRC:CL:WL:tCDLR:tWR:nbkgrp:tCCDL:tRTPL}
-rop_latency                          120 # ROP queue latency (default 85)
-dram_latency                         100 # DRAM latency (default 30)
-gpgpu_mem_addr_mapping dramid@8;00000000.00000000.00000000.00000000.0000RRRR.RRRRRRRR.BBBCCCCB.CCSSSSSS # mapping memory address to dram model {dramid@<start bit>;<memory address map>}
-gpgpu_mem_addr_test                    0 # run sweep test to check address mapping for aliased address
-gpgpu_mem_address_mask                    1 # 0 = old addressing mask, 1 = new addressing mask, 2 = new add. mask + flipped bank sel and chip sel bits
-gpuwattch_xml_file         gpuwattch.xml # GPUWattch XML file
-power_simulation_enabled                    0 # Turn on power simulator (1=On, 0=Off)
-power_per_cycle_dump                    0 # Dump detailed power output each cycle
-power_trace_enabled                    0 # produce a file for the power trace (1=On, 0=Off)
-power_trace_zlevel                     6 # Compression level of the power trace output log (0=no comp, 9=highest)
-steady_power_levels_enabled                    0 # produce a file for the steady power levels (1=On, 0=Off)
-steady_state_definition                  8:4 # allowed deviation:number of samples
-gpgpu_max_cycle                        0 # terminates gpu simulation early (0 = no limit)
-gpgpu_max_insn                         0 # terminates gpu simulation early (0 = no limit)
-gpgpu_max_cta                          0 # terminates gpu simulation early (0 = no limit)
-gpgpu_runtime_stat             5000000:0 # display runtime statistics such as dram utilization {<freq>:<flag>}
-liveness_message_freq                    1 # Minimum number of seconds between simulation liveness messages (0 = always print)
-gpgpu_flush_l1_cache                    0 # Flush L1 cache at the end of each kernel call
-gpgpu_flush_l2_cache                    0 # Flush L2 cache at the end of each kernel call
-gpgpu_deadlock_detect                    1 # Stop the simulation at deadlock (1=on (default), 0=off)
-gpgpu_ptx_instruction_classification                    0 # if enabled will classify ptx instruction types per kernel (Max 255 kernels now)
-gpgpu_ptx_sim_mode                     0 # Select between Performance (default) or Functional simulation (1)
-gpgpu_clock_domains 575.0:575.0:575.0:750.0 # Clock Domain Frequencies in MhZ {<Core Clock>:<ICNT Clock>:<L2 Clock>:<DRAM Clock>}
-gpgpu_max_concurrent_kernel                    8 # maximum kernels that can run concurrently on GPU
-gpgpu_cflog_interval                    0 # Interval between each snapshot in control flow logger
-visualizer_enabled                     0 # Turn on visualizer output (1=On, 0=Off)
-visualizer_outputfile                 NULL # Specifies the output log file for visualizer
-visualizer_zlevel                      6 # Compression level of the visualizer output log (0=no comp, 9=highest)
-trace_enabled                          0 # Turn on traces
-trace_components                    none # comma seperated list of traces to enable. Complete list found in trace_streams.tup. Default none
-trace_sampling_core                    0 # The core which is printed using CORE_DPRINTF. Default 0
-trace_sampling_memory_partition                   -1 # The memory partition which is printed using MEMPART_DPRINTF. Default -1 (i.e. all)
-enable_ptx_file_line_stats                    0 # Turn on PTX source line statistic profiling. (1 = On)
-ptx_line_stats_filename gpgpu_inst_stats.txt # Output file for PTX source line statistics.
-save_embedded_ptx                      0 # saves ptx files embedded in binary as <n>.ptx
-keep                                   0 # keep intermediate files created by GPGPU-Sim when interfacing with external programs
-gpgpu_ptx_save_converted_ptxplus                    1 # Saved converted ptxplus to a file
-ptx_opcode_latency_int         4,13,4,5,145 # Opcode latencies for integers <ADD,MAX,MUL,MAD,DIV>Default 1,1,19,25,145
-ptx_opcode_latency_fp          4,13,4,5,39 # Opcode latencies for single precision floating points <ADD,MAX,MUL,MAD,DIV>Default 1,1,1,1,30
-ptx_opcode_latency_dp         8,19,8,8,330 # Opcode latencies for double precision floating points <ADD,MAX,MUL,MAD,DIV>Default 8,8,8,8,335
-ptx_opcode_initiation_int            1,2,2,1,8 # Opcode initiation intervals for integers <ADD,MAX,MUL,MAD,DIV>Default 1,1,4,4,32
-ptx_opcode_initiation_fp            1,2,1,1,4 # Opcode initiation intervals for single precision floating points <ADD,MAX,MUL,MAD,DIV>Default 1,1,1,1,5
-ptx_opcode_initiation_dp         8,16,8,8,130 # Opcode initiation intervals for double precision floating points <ADD,MAX,MUL,MAD,DIV>Default 8,8,8,8,130
DRAM Timing Options:
nbk                                    16 # number of banks
CCD                                     2 # column to column delay
RRD                                     6 # minimal delay between activation of rows in different banks
RCD                                    12 # row to column delay
RAS                                    28 # time needed to activate row
RP                                     12 # time needed to precharge (deactivate) row
RC                                     40 # row cycle time
CDLR                                    5 # switching from write to read (changes tWTR)
WR                                     12 # last data-in to row precharge
CL                                     12 # CAS latency
WL                                      4 # Write latency
nbkgrp                                  4 # number of bank groups
CCDL                                    3 # column to column delay between accesses to different bank groups
RTPL                                    2 # read to precharge delay between accesses to different bank groups
Total number of memory sub partition = 12
addr_dec_mask[CHIP]  = 0000000000000000 	high:64 low:0
addr_dec_mask[BK]    = 000000000000e100 	high:16 low:8
addr_dec_mask[ROW]   = 000000000fff0000 	high:28 low:16
addr_dec_mask[COL]   = 0000000000001eff 	high:13 low:0
addr_dec_mask[BURST] = 000000000000003f 	high:6 low:0
sub_partition_id_mask = 0000000000000100
GPGPU-Sim uArch: clock freqs: 575000000.000000:575000000.000000:575000000.000000:750000000.000000
GPGPU-Sim uArch: clock periods: 0.00000000173913043478:0.00000000173913043478:0.00000000173913043478:0.00000000133333333333
*** Initializing Memory Statistics ***
GPGPU-Sim uArch: interconnect node map (shaderID+MemID to icntID)
GPGPU-Sim uArch: Memory nodes ID start from index: 14
GPGPU-Sim uArch:    0   1   2   3   4
GPGPU-Sim uArch:    5   6   7   8   9
GPGPU-Sim uArch:   10  11  12  13  14
GPGPU-Sim uArch:   15  16  17  18  19
GPGPU-Sim uArch:   20  21  22  23  24
GPGPU-Sim uArch:   25
GPGPU-Sim uArch: interconnect node reverse map (icntID to shaderID+MemID)
GPGPU-Sim uArch: Memory nodes start from ID: 14
GPGPU-Sim uArch:    0   1   2   3   4
GPGPU-Sim uArch:    5   6   7   8   9
GPGPU-Sim uArch:   10  11  12  13  14
GPGPU-Sim uArch:   15  16  17  18  19
GPGPU-Sim uArch:   20  21  22  23  24
GPGPU-Sim uArch:   25
ab3778937a18a2a07ea2542ed27222a6  /home/vishwesh/Desktop/Register_Sharing_Pbm/ispass2009-benchmarks/bin/release/LPS
GPGPU-Sim uArch: performance model initialization complete.
GPGPU-Sim PTX: __cudaRegisterFatBinary, fat_cubin_handle = 1, filename=laplace3d.cu
self exe links to: /home/vishwesh/Desktop/Register_Sharing_Pbm/ispass2009-benchmarks/bin/release/LPS
Running md5sum using "md5sum /home/vishwesh/Desktop/Register_Sharing_Pbm/ispass2009-benchmarks/bin/release/LPS "
Running cuobjdump using "$CUDA_INSTALL_PATH/bin/cuobjdump -ptx -elf -sass /home/vishwesh/Desktop/Register_Sharing_Pbm/ispass2009-benchmarks/bin/release/LPS > _cuobjdump_complete_output_FDZ5hD"
Parsing file _cuobjdump_complete_output_FDZ5hD
######### cuobjdump parser ########
## Adding new section PTX
Adding ptx filename: _cuobjdump_1.ptx
Adding arch: sm_10
Adding identifier: laplace3d.cu
## Adding new section ELF
Adding arch: sm_10
Adding identifier: laplace3d.cu
## Adding new section ELF
Adding arch: sm_20
Adding identifier: laplace3d.cu
## Adding new section PTX
Adding ptx filename: _cuobjdump_2.ptx
Adding arch: sm_20
Adding identifier: laplace3d.cu
Done parsing!!!
GPGPU-Sim: WARNING: Capability >= 20 are not supported in PTXPlus
	Setting forced_max_capability to 19
GPGPU-Sim PTX: __cudaRegisterFunction _Z13GPU_laplace3diiiiPfS_ : hostFun 0x0x403b00, fat_cubin_handle = 1
GPGPU-Sim PTX: converting EMBEDDED .ptx file to ptxplus 
GPGPU-Sim PTX: DONE converting EMBEDDED .ptx file to ptxplus 
GPGPU-Sim PTX: allocating constant region for "constant1_Z13GPU_laplace3diiiiPfS_" from 0x100 to 0x114 (global memory space) 1
GPGPU-Sim PTX: PTX uses two scalar type intruction with literal operand.
GPGPU-Sim PTX: instruction assembly for function '_Z13GPU_laplace3diiiiPfS_'...   done.
GPGPU-Sim PTX: finding reconvergence points for '_Z13GPU_laplace3diiiiPfS_'...
GPGPU-Sim PTX: Warning detected predicated return/exit.
GPGPU-Sim PTX: Finding dominators for '_Z13GPU_laplace3diiiiPfS_'...
GPGPU-Sim PTX: Finding immediate dominators for '_Z13GPU_laplace3diiiiPfS_'...
GPGPU-Sim PTX: Finding postdominators for '_Z13GPU_laplace3diiiiPfS_'...
GPGPU-Sim PTX: Finding immediate postdominators for '_Z13GPU_laplace3diiiiPfS_'...
GPGPU-Sim PTX: pre-decoding instructions for '_Z13GPU_laplace3diiiiPfS_'...
GPGPU-Sim PTX: reconvergence points for _Z13GPU_laplace3diiiiPfS_...
GPGPU-Sim PTX:  1 (potential) branch divergence @  PC=0x058 (_1.ptx:63) @$p0.eq bra l0x00000178;
GPGPU-Sim PTX:    immediate post dominator      @  PC=0x190 (_1.ptx:103) l0x00000190: and.u16 $r2.lo, $r2.hi, constant1_Z13GPU_laplace3diiiiPfS_[0x0000];
GPGPU-Sim PTX:  2 (potential) branch divergence @  PC=0x078 (_1.ptx:67) @$p0.ne bra l0x000000a0;
GPGPU-Sim PTX:    immediate post dominator      @  PC=0x0f0 (_1.ptx:82) l0x000000f0: shl.u32 $r5, $r5, 0x00000005;
GPGPU-Sim PTX:  3 (potential) branch divergence @  PC=0x098 (_1.ptx:71) bra l0x000000f0;
GPGPU-Sim PTX:    immediate post dominator      @  PC=0x0f0 (_1.ptx:82) l0x000000f0: shl.u32 $r5, $r5, 0x00000005;
GPGPU-Sim PTX:  4 (potential) branch divergence @  PC=0x170 (_1.ptx:99) bra l0x00000190;
GPGPU-Sim PTX:    immediate post dominator      @  PC=0x190 (_1.ptx:103) l0x00000190: and.u16 $r2.lo, $r2.hi, constant1_Z13GPU_laplace3diiiiPfS_[0x0000];
GPGPU-Sim PTX:  5 (potential) branch divergence @  PC=0x1e0 (_1.ptx:114) @$p0.eq bra l0x00000220;
GPGPU-Sim PTX:    immediate post dominator      @  PC=0x220 (_1.ptx:122) l0x00000220: set.ne.s32.s32 $p1/$r4, $r8, $r124;
GPGPU-Sim PTX:  6 (potential) branch divergence @  PC=0x2a8 (_1.ptx:139) @$p1.ne bra l0x00000318;
GPGPU-Sim PTX:    immediate post dominator      @  PC=0x318 (_1.ptx:154) l0x00000318: nop;
GPGPU-Sim PTX:  7 (potential) branch divergence @  PC=0x328 (_1.ptx:156) @$p0.eq bra l0x000003a0;
GPGPU-Sim PTX:    immediate post dominator      @  PC=0x3a0 (_1.ptx:172) l0x000003a0: nop;
GPGPU-Sim PTX:  8 (potential) branch divergence @  PC=0x3c0 (_1.ptx:176) @$p1.ne bra l0x000004b0;
GPGPU-Sim PTX:    immediate post dominator      @  PC=0x4b0 (_1.ptx:207) l0x000004b0: nop;
GPGPU-Sim PTX:  9 (potential) branch divergence @  PC=0x3d8 (_1.ptx:179) @$p1.ne bra l0x00000430;
GPGPU-Sim PTX:    immediate post dominator      @  PC=0x498 (_1.ptx:204) l0x00000498: shl.u32 $r4, $r0, 0x00000002;
GPGPU-Sim PTX: 10 (potential) branch divergence @  PC=0x3e8 (_1.ptx:181) @$p1.ne bra l0x00000430;
GPGPU-Sim PTX:    immediate post dominator      @  PC=0x498 (_1.ptx:204) l0x00000498: shl.u32 $r4, $r0, 0x00000002;
GPGPU-Sim PTX: 11 (potential) branch divergence @  PC=0x3f8 (_1.ptx:183) @$p1.ne bra l0x00000430;
GPGPU-Sim PTX:    immediate post dominator      @  PC=0x498 (_1.ptx:204) l0x00000498: shl.u32 $r4, $r0, 0x00000002;
GPGPU-Sim PTX: 12 (potential) branch divergence @  PC=0x408 (_1.ptx:185) @$p1.ne bra l0x00000430;
GPGPU-Sim PTX:    immediate post dominator      @  PC=0x498 (_1.ptx:204) l0x00000498: shl.u32 $r4, $r0, 0x00000002;
GPGPU-Sim PTX: 13 (potential) branch divergence @  PC=0x418 (_1.ptx:187) @$p1.ne bra l0x00000430;
GPGPU-Sim PTX:    immediate post dominator      @  PC=0x498 (_1.ptx:204) l0x00000498: shl.u32 $r4, $r0, 0x00000002;
GPGPU-Sim PTX: 14 (potential) branch divergence @  PC=0x428 (_1.ptx:189) @$p1.ne bra l0x00000448;
GPGPU-Sim PTX:    immediate post dominator      @  PC=0x498 (_1.ptx:204) l0x00000498: shl.u32 $r4, $r0, 0x00000002;
GPGPU-Sim PTX: 15 (potential) branch divergence @  PC=0x440 (_1.ptx:192) bra l0x00000498;
GPGPU-Sim PTX:    immediate post dominator      @  PC=0x498 (_1.ptx:204) l0x00000498: shl.u32 $r4, $r0, 0x00000002;
GPGPU-Sim PTX: 16 (potential) branch divergence @  PC=0x4d0 (_1.ptx:211) @$p1.ne bra l0x00000298;
GPGPU-Sim PTX:    immediate post dominator      @  PC=0x4d8 (_1.ptx:212) nop;
GPGPU-Sim PTX: ... end of reconvergence points for _Z13GPU_laplace3diiiiPfS_
GPGPU-Sim PTX: ... done pre-decoding instructions for '_Z13GPU_laplace3diiiiPfS_'.
GPGPU-Sim PTX: finished parsing EMBEDDED .ptx file _1.ptx
Adding _cuobjdump_1.ptx with cubin handle 1
GPGPU-Sim PTX: extracting embedded .ptx to temporary file "_ptx_tb3WgZ"
Running: cat _ptx_tb3WgZ | sed 's/.version 1.5/.version 1.4/' | sed 's/, texmode_independent//' | sed 's/\(\.extern \.const\[1\] .b8 \w\+\)\[\]/\1\[1\]/' | sed 's/const\[.\]/const\[0\]/g' > _ptx2_nR2Ofl
GPGPU-Sim PTX: generating ptxinfo using "$CUDA_INSTALL_PATH/bin/ptxas --gpu-name=sm_20 -v _ptx2_nR2Ofl --output-file  /dev/null 2> _ptx_tb3WgZinfo"
GPGPU-Sim PTX: Kernel '_Z13GPU_laplace3diiiiPfS_' : regs=17, lmem=0, smem=4080, cmem=64
GPGPU-Sim PTX: removing ptxinfo using "rm -f _ptx_tb3WgZ _ptx2_nR2Ofl _ptx_tb3WgZinfo"
GPGPU-Sim PTX: loading globals with explicit initializers... 
GPGPU-Sim PTX: finished loading globals (0 bytes total).
GPGPU-Sim PTX: loading constants with explicit initializers...  done.

Grid dimensions: 256 x 256 x 100
GPGPU-Sim PTX: cudaMallocPitch (width = 1024)
GPGPU-Sim PTX: cudaMallocPitch (width = 1024)
GPGPU-Sim: synchronize waiting for inactive GPU simulation
GPGPU-Sim API: Stream Manager State
GPGPU-Sim: detected inactive GPU simulation thread

Copy u1 to device: 436.497009 (ms) 

 dimGrid  = 8 32 1 
 dimBlock = 32 8 1 
GPGPU-Sim: synchronize waiting for inactive GPU simulation
GPGPU-Sim API: Stream Manager State
GPGPU-Sim: detected inactive GPU simulation thread

GPGPU-Sim PTX: cudaLaunch for 0x0x403b00 (mode=performance simulation) on stream 0
GPGPU-Sim PTX: pushing kernel '_Z13GPU_laplace3diiiiPfS_' to stream 0, gridDim= (8,32,1) blockDim = (32,8,1) 
kernel '_Z13GPU_laplace3diiiiPfS_' transfer to GPU hardware scheduler
GPGPU-Sim uArch: Shader 1 bind to kernel 1 '_Z13GPU_laplace3diiiiPfS_'
GPGPU-Sim uArch: CTA/core = 10, limited by: regs
Shared mode is : 1
GPGPU-Sim uArch: core:  1, cta: 0 initialized @(1,0)
GPGPU-Sim uArch: Shader 2 bind to kernel 1 '_Z13GPU_laplace3diiiiPfS_'
Shared mode is : 1
GPGPU-Sim uArch: core:  2, cta: 0 initialized @(1,0)
GPGPU-Sim uArch: Shader 3 bind to kernel 1 '_Z13GPU_laplace3diiiiPfS_'
Shared mode is : 1
GPGPU-Sim uArch: core:  3, cta: 0 initialized @(1,0)
GPGPU-Sim uArch: Shader 4 bind to kernel 1 '_Z13GPU_laplace3diiiiPfS_'
Shared mode is : 1
GPGPU-Sim uArch: core:  4, cta: 0 initialized @(1,0)
GPGPU-Sim uArch: Shader 5 bind to kernel 1 '_Z13GPU_laplace3diiiiPfS_'
Shared mode is : 1
GPGPU-Sim uArch: core:  5, cta: 0 initialized @(1,0)
GPGPU-Sim uArch: Shader 6 bind to kernel 1 '_Z13GPU_laplace3diiiiPfS_'
Shared mode is : 1
GPGPU-Sim uArch: core:  6, cta: 0 initialized @(1,0)
GPGPU-Sim uArch: Shader 7 bind to kernel 1 '_Z13GPU_laplace3diiiiPfS_'
Shared mode is : 1
GPGPU-Sim uArch: core:  7, cta: 0 initialized @(1,0)
GPGPU-Sim uArch: Shader 8 bind to kernel 1 '_Z13GPU_laplace3diiiiPfS_'
Shared mode is : 1
GPGPU-Sim uArch: core:  8, cta: 0 initialized @(1,0)
GPGPU-Sim uArch: Shader 9 bind to kernel 1 '_Z13GPU_laplace3diiiiPfS_'
Shared mode is : 1
GPGPU-Sim uArch: core:  9, cta: 0 initialized @(1,0)
GPGPU-Sim uArch: Shader 10 bind to kernel 1 '_Z13GPU_laplace3diiiiPfS_'
Shared mode is : 1
GPGPU-Sim uArch: core: 10, cta: 0 initialized @(1,0)
GPGPU-Sim uArch: Shader 11 bind to kernel 1 '_Z13GPU_laplace3diiiiPfS_'
Shared mode is : 1
GPGPU-Sim uArch: core: 11, cta: 0 initialized @(1,0)
GPGPU-Sim uArch: Shader 12 bind to kernel 1 '_Z13GPU_laplace3diiiiPfS_'
Shared mode is : 1
GPGPU-Sim uArch: core: 12, cta: 0 initialized @(1,0)
GPGPU-Sim uArch: Shader 13 bind to kernel 1 '_Z13GPU_laplace3diiiiPfS_'
Shared mode is : 1
GPGPU-Sim uArch: core: 13, cta: 0 initialized @(1,0)
GPGPU-Sim uArch: Shader 0 bind to kernel 1 '_Z13GPU_laplace3diiiiPfS_'
Shared mode is : 1
GPGPU-Sim uArch: core:  0, cta: 0 initialized @(1,0)
Shared mode is : 1
GPGPU-Sim uArch: core:  1, cta: 1 initialized @(2,0)
Shared mode is : 1
GPGPU-Sim uArch: core:  2, cta: 1 initialized @(2,0)
Shared mode is : 1
GPGPU-Sim uArch: core:  3, cta: 1 initialized @(2,0)
Shared mode is : 1
GPGPU-Sim uArch: core:  4, cta: 1 initialized @(2,0)
Shared mode is : 1
GPGPU-Sim uArch: core:  5, cta: 1 initialized @(2,0)
Shared mode is : 1
GPGPU-Sim uArch: core:  6, cta: 1 initialized @(2,0)
Shared mode is : 1
GPGPU-Sim uArch: core:  7, cta: 1 initialized @(2,0)
Shared mode is : 1
GPGPU-Sim uArch: core:  8, cta: 1 initialized @(2,0)
Shared mode is : 1
GPGPU-Sim uArch: core:  9, cta: 1 initialized @(2,0)
Shared mode is : 1
GPGPU-Sim uArch: core: 10, cta: 1 initialized @(2,0)
Shared mode is : 1
GPGPU-Sim uArch: core: 11, cta: 1 initialized @(2,0)
Shared mode is : 1
GPGPU-Sim uArch: core: 12, cta: 1 initialized @(2,0)
Shared mode is : 1
GPGPU-Sim uArch: core: 13, cta: 1 initialized @(2,0)
Shared mode is : 1
GPGPU-Sim uArch: core:  0, cta: 1 initialized @(2,0)
Shared mode is : 1
GPGPU-Sim uArch: core:  1, cta: 2 initialized @(3,0)
Shared mode is : 1
GPGPU-Sim uArch: core:  2, cta: 2 initialized @(3,0)
Shared mode is : 1
GPGPU-Sim uArch: core:  3, cta: 2 initialized @(3,0)
Shared mode is : 1
GPGPU-Sim uArch: core:  4, cta: 2 initialized @(3,0)
Shared mode is : 1
GPGPU-Sim uArch: core:  5, cta: 2 initialized @(3,0)
Shared mode is : 1
GPGPU-Sim uArch: core:  6, cta: 2 initialized @(3,0)
Shared mode is : 1
GPGPU-Sim uArch: core:  7, cta: 2 initialized @(3,0)
Shared mode is : 1
GPGPU-Sim uArch: core:  8, cta: 2 initialized @(3,0)
Shared mode is : 1
GPGPU-Sim uArch: core:  9, cta: 2 initialized @(3,0)
Shared mode is : 1
GPGPU-Sim uArch: core: 10, cta: 2 initialized @(3,0)
Shared mode is : 1
GPGPU-Sim uArch: core: 11, cta: 2 initialized @(3,0)
Shared mode is : 1
GPGPU-Sim uArch: core: 12, cta: 2 initialized @(3,0)
Shared mode is : 1
GPGPU-Sim uArch: core: 13, cta: 2 initialized @(3,0)
Shared mode is : 1
GPGPU-Sim uArch: core:  0, cta: 2 initialized @(3,0)
Shared mode is : 1
GPGPU-Sim uArch: core:  1, cta: 3 initialized @(4,0)
Shared mode is : 1
GPGPU-Sim uArch: core:  2, cta: 3 initialized @(4,0)
Shared mode is : 1
GPGPU-Sim uArch: core:  3, cta: 3 initialized @(4,0)
Shared mode is : 1
GPGPU-Sim uArch: core:  4, cta: 3 initialized @(4,0)
Shared mode is : 1
GPGPU-Sim uArch: core:  5, cta: 3 initialized @(4,0)
Shared mode is : 1
GPGPU-Sim uArch: core:  6, cta: 3 initialized @(4,0)
Shared mode is : 1
GPGPU-Sim uArch: core:  7, cta: 3 initialized @(4,0)
Shared mode is : 1
GPGPU-Sim uArch: core:  8, cta: 3 initialized @(4,0)
Shared mode is : 1
GPGPU-Sim uArch: core:  9, cta: 3 initialized @(4,0)
Shared mode is : 1
GPGPU-Sim uArch: core: 10, cta: 3 initialized @(4,0)
Shared mode is : 1
GPGPU-Sim uArch: core: 11, cta: 3 initialized @(4,0)
Shared mode is : 1
GPGPU-Sim uArch: core: 12, cta: 3 initialized @(4,0)
Shared mode is : 1
GPGPU-Sim uArch: core: 13, cta: 3 initialized @(4,0)
Shared mode is : 1
GPGPU-Sim uArch: core:  0, cta: 3 initialized @(4,0)
Shared mode is : 1
GPGPU-Sim uArch: core:  1, cta: 4 initialized @(5,0)
Shared mode is : 1
GPGPU-Sim uArch: core:  2, cta: 4 initialized @(5,0)
Shared mode is : 1
GPGPU-Sim uArch: core:  3, cta: 4 initialized @(5,0)
Shared mode is : 1
GPGPU-Sim uArch: core:  4, cta: 4 initialized @(5,0)
Shared mode is : 1
GPGPU-Sim uArch: core:  5, cta: 4 initialized @(5,0)
Shared mode is : 1
GPGPU-Sim uArch: core:  6, cta: 4 initialized @(5,0)
Shared mode is : 1
GPGPU-Sim uArch: core:  7, cta: 4 initialized @(5,0)
Shared mode is : 1
GPGPU-Sim uArch: core:  8, cta: 4 initialized @(5,0)
Shared mode is : 1
GPGPU-Sim uArch: core:  9, cta: 4 initialized @(5,0)
Shared mode is : 1
GPGPU-Sim uArch: core: 10, cta: 4 initialized @(5,0)
Shared mode is : 1
GPGPU-Sim uArch: core: 11, cta: 4 initialized @(5,0)
Shared mode is : 1
GPGPU-Sim uArch: core: 12, cta: 4 initialized @(5,0)
Shared mode is : 1
GPGPU-Sim uArch: core: 13, cta: 4 initialized @(5,0)
Shared mode is : 1
GPGPU-Sim uArch: core:  0, cta: 4 initialized @(5,0)
Shared mode is : 1
GPGPU-Sim uArch: core:  1, cta: 5 initialized @(6,0)
Shared mode is : 1
GPGPU-Sim uArch: core:  2, cta: 5 initialized @(6,0)
Shared mode is : 1
GPGPU-Sim uArch: core:  3, cta: 5 initialized @(6,0)
Shared mode is : 1
GPGPU-Sim uArch: core:  4, cta: 5 initialized @(6,0)
Shared mode is : 1
GPGPU-Sim uArch: core:  5, cta: 5 initialized @(6,0)
Shared mode is : 1
GPGPU-Sim uArch: core:  6, cta: 5 initialized @(6,0)
Shared mode is : 1
GPGPU-Sim uArch: core:  7, cta: 5 initialized @(6,0)
Shared mode is : 1
GPGPU-Sim uArch: core:  8, cta: 5 initialized @(6,0)
Shared mode is : 1
GPGPU-Sim uArch: core:  9, cta: 5 initialized @(6,0)
Shared mode is : 1
GPGPU-Sim uArch: core: 10, cta: 5 initialized @(6,0)
Shared mode is : 1
GPGPU-Sim uArch: core: 11, cta: 5 initialized @(6,0)
Shared mode is : 1
GPGPU-Sim uArch: core: 12, cta: 5 initialized @(6,0)
Shared mode is : 1
GPGPU-Sim uArch: core: 13, cta: 5 initialized @(6,0)
Shared mode is : 1
GPGPU-Sim uArch: core:  0, cta: 5 initialized @(6,0)
Shared mode is : 1
GPGPU-Sim uArch: core:  1, cta: 6 initialized @(7,0)
Shared mode is : 1
GPGPU-Sim uArch: core:  2, cta: 6 initialized @(7,0)
Shared mode is : 1
GPGPU-Sim uArch: core:  3, cta: 6 initialized @(7,0)
Shared mode is : 1
GPGPU-Sim uArch: core:  4, cta: 6 initialized @(7,0)
Shared mode is : 1
GPGPU-Sim uArch: core:  5, cta: 6 initialized @(7,0)
Shared mode is : 1
GPGPU-Sim uArch: core:  6, cta: 6 initialized @(7,0)
Shared mode is : 1
GPGPU-Sim uArch: core:  7, cta: 6 initialized @(7,0)
Shared mode is : 1
GPGPU-Sim uArch: core:  8, cta: 6 initialized @(7,0)
Shared mode is : 1
GPGPU-Sim uArch: core:  9, cta: 6 initialized @(7,0)
Shared mode is : 1
GPGPU-Sim uArch: core: 10, cta: 6 initialized @(7,0)
Shared mode is : 1
GPGPU-Sim uArch: core: 11, cta: 6 initialized @(7,0)
Shared mode is : 1
GPGPU-Sim uArch: core: 12, cta: 6 initialized @(7,0)
Shared mode is : 1
GPGPU-Sim uArch: core: 13, cta: 6 initialized @(7,0)
Shared mode is : 1
GPGPU-Sim uArch: core:  0, cta: 6 initialized @(7,0)
Shared mode is : 1
GPGPU-Sim uArch: core:  1, cta: 7 initialized @(8,0)
Shared mode is : 1
GPGPU-Sim uArch: core:  2, cta: 7 initialized @(8,0)
Shared mode is : 1
GPGPU-Sim uArch: core:  3, cta: 7 initialized @(8,0)
Shared mode is : 1
GPGPU-Sim uArch: core:  4, cta: 7 initialized @(8,0)
Shared mode is : 1
GPGPU-Sim uArch: core:  5, cta: 7 initialized @(8,0)
Shared mode is : 1
GPGPU-Sim uArch: core:  6, cta: 7 initialized @(8,0)
Shared mode is : 1
GPGPU-Sim uArch: core:  7, cta: 7 initialized @(8,0)
Shared mode is : 1
GPGPU-Sim uArch: core:  8, cta: 7 initialized @(8,0)
Shared mode is : 1
GPGPU-Sim uArch: core:  9, cta: 7 initialized @(8,0)
Shared mode is : 1
GPGPU-Sim uArch: core: 10, cta: 7 initialized @(8,0)
Shared mode is : 1
GPGPU-Sim uArch: core: 11, cta: 7 initialized @(8,0)
Shared mode is : 1
GPGPU-Sim uArch: core: 12, cta: 7 initialized @(8,0)
Shared mode is : 1
GPGPU-Sim uArch: core: 13, cta: 7 initialized @(8,0)
Shared mode is : 1
GPGPU-Sim uArch: core:  0, cta: 7 initialized @(8,0)
Shared mode is : 1
GPGPU-Sim uArch: core:  1, cta: 8 initialized @(9,0)
Shared mode is : 1
GPGPU-Sim uArch: core:  2, cta: 8 initialized @(9,0)
Shared mode is : 1
GPGPU-Sim uArch: core:  3, cta: 8 initialized @(9,0)
Shared mode is : 1
GPGPU-Sim uArch: core:  4, cta: 8 initialized @(9,0)
Shared mode is : 1
GPGPU-Sim uArch: core:  5, cta: 8 initialized @(9,0)
Shared mode is : 1
GPGPU-Sim uArch: core:  6, cta: 8 initialized @(9,0)
Shared mode is : 1
GPGPU-Sim uArch: core:  7, cta: 8 initialized @(9,0)
Shared mode is : 1
GPGPU-Sim uArch: core:  8, cta: 8 initialized @(9,0)
Shared mode is : 1
GPGPU-Sim uArch: core:  9, cta: 8 initialized @(9,0)
Shared mode is : 1
GPGPU-Sim uArch: core: 10, cta: 8 initialized @(9,0)
Shared mode is : 1
GPGPU-Sim uArch: core: 11, cta: 8 initialized @(9,0)
Shared mode is : 1
GPGPU-Sim uArch: core: 12, cta: 8 initialized @(9,0)
Shared mode is : 1
GPGPU-Sim uArch: core: 13, cta: 8 initialized @(9,0)
Shared mode is : 1
GPGPU-Sim uArch: core:  0, cta: 8 initialized @(9,0)
Shared mode is : 1
GPGPU-Sim uArch: core:  1, cta: 9 initialized @(10,0)
Shared mode is : 1
GPGPU-Sim uArch: core:  2, cta: 9 initialized @(10,0)
Shared mode is : 1
GPGPU-Sim uArch: core:  3, cta: 9 initialized @(10,0)
Shared mode is : 1
GPGPU-Sim uArch: core:  4, cta: 9 initialized @(10,0)
Shared mode is : 1
GPGPU-Sim uArch: core:  5, cta: 9 initialized @(10,0)
Shared mode is : 1
GPGPU-Sim uArch: core:  6, cta: 9 initialized @(10,0)
Shared mode is : 1
GPGPU-Sim uArch: core:  7, cta: 9 initialized @(10,0)
Shared mode is : 1
GPGPU-Sim uArch: core:  8, cta: 9 initialized @(10,0)
Shared mode is : 1
GPGPU-Sim uArch: core:  9, cta: 9 initialized @(10,0)
Shared mode is : 1
GPGPU-Sim uArch: core: 10, cta: 9 initialized @(10,0)
Shared mode is : 1
GPGPU-Sim uArch: core: 11, cta: 9 initialized @(10,0)
Shared mode is : 1
GPGPU-Sim uArch: core: 12, cta: 9 initialized @(10,0)
Shared mode is : 1
GPGPU-Sim uArch: core: 13, cta: 9 initialized @(10,0)
Shared mode is : 1
GPGPU-Sim uArch: core:  0, cta: 9 initialized @(10,0)
GPGPU-Sim PTX: WARNING (_1.ptx:87) ** reading undefined register '$r124' (cuid:0). Setting to 0X00000000. This is okay if you are simulating the native ISA
GPGPU-Sim uArch: Shader 7 finished CTA #0 (167016,0), 9 CTAs running
Shared mode is : 1
GPGPU-Sim uArch: core:  7, cta: 0 initialized @(167017,0)
GPGPU-Sim uArch: Shader 8 finished CTA #0 (167479,0), 9 CTAs running
Shared mode is : 1
GPGPU-Sim uArch: core:  8, cta: 0 initialized @(167480,0)
GPGPU-Sim uArch: Shader 6 finished CTA #0 (167837,0), 9 CTAs running
Shared mode is : 1
GPGPU-Sim uArch: core:  6, cta: 0 initialized @(167838,0)
GPGPU-Sim uArch: Shader 5 finished CTA #0 (168647,0), 9 CTAs running
Shared mode is : 1
GPGPU-Sim uArch: core:  5, cta: 0 initialized @(168648,0)
GPGPU-Sim uArch: Shader 4 finished CTA #0 (168814,0), 9 CTAs running
Shared mode is : 1
GPGPU-Sim uArch: core:  4, cta: 0 initialized @(168815,0)
GPGPU-Sim uArch: Shader 3 finished CTA #0 (168971,0), 9 CTAs running
Shared mode is : 1
GPGPU-Sim uArch: core:  3, cta: 0 initialized @(168972,0)
GPGPU-Sim uArch: Shader 2 finished CTA #0 (169172,0), 9 CTAs running
Shared mode is : 1
GPGPU-Sim uArch: core:  2, cta: 0 initialized @(169173,0)
GPGPU-Sim uArch: Shader 1 finished CTA #0 (169976,0), 9 CTAs running
Shared mode is : 1
GPGPU-Sim uArch: core:  1, cta: 0 initialized @(169977,0)
GPGPU-Sim uArch: Shader 10 finished CTA #0 (172323,0), 9 CTAs running
Shared mode is : 1
GPGPU-Sim uArch: core: 10, cta: 0 initialized @(172324,0)
GPGPU-Sim uArch: Shader 9 finished CTA #0 (172437,0), 9 CTAs running
Shared mode is : 1
GPGPU-Sim uArch: core:  9, cta: 0 initialized @(172438,0)
GPGPU-Sim uArch: Shader 11 finished CTA #0 (172669,0), 9 CTAs running
Shared mode is : 1
GPGPU-Sim uArch: core: 11, cta: 0 initialized @(172670,0)
GPGPU-Sim uArch: Shader 12 finished CTA #0 (173520,0), 9 CTAs running
Shared mode is : 1
GPGPU-Sim uArch: core: 12, cta: 0 initialized @(173521,0)
GPGPU-Sim uArch: Shader 13 finished CTA #0 (174020,0), 9 CTAs running
Shared mode is : 1
GPGPU-Sim uArch: core: 13, cta: 0 initialized @(174021,0)
GPGPU-Sim uArch: Shader 1 finished CTA #1 (174417,0), 9 CTAs running
Shared mode is : 1
GPGPU-Sim uArch: core:  1, cta: 1 initialized @(174418,0)
GPGPU-Sim uArch: Shader 2 finished CTA #1 (174909,0), 9 CTAs running
Shared mode is : 1
GPGPU-Sim uArch: core:  2, cta: 1 initialized @(174910,0)
GPGPU-Sim uArch: Shader 0 finished CTA #0 (174998,0), 9 CTAs running
Shared mode is : 1
GPGPU-Sim uArch: core:  0, cta: 0 initialized @(174999,0)
GPGPU-Sim uArch: Shader 8 finished CTA #1 (175910,0), 9 CTAs running
Shared mode is : 1
GPGPU-Sim uArch: core:  8, cta: 1 initialized @(175911,0)
GPGPU-Sim uArch: Shader 7 finished CTA #1 (176059,0), 9 CTAs running
Shared mode is : 1
GPGPU-Sim uArch: core:  7, cta: 1 initialized @(176060,0)
GPGPU-Sim uArch: Shader 9 finished CTA #1 (176267,0), 9 CTAs running
Shared mode is : 1
GPGPU-Sim uArch: core:  9, cta: 1 initialized @(176268,0)
GPGPU-Sim uArch: Shader 10 finished CTA #1 (176953,0), 9 CTAs running
Shared mode is : 1
GPGPU-Sim uArch: core: 10, cta: 1 initialized @(176954,0)
GPGPU-Sim uArch: Shader 6 finished CTA #1 (177243,0), 9 CTAs running
Shared mode is : 1
GPGPU-Sim uArch: core:  6, cta: 1 initialized @(177244,0)
GPGPU-Sim uArch: Shader 5 finished CTA #1 (179209,0), 9 CTAs running
Shared mode is : 1
GPGPU-Sim uArch: core:  5, cta: 1 initialized @(179210,0)
GPGPU-Sim uArch: Shader 4 finished CTA #1 (180736,0), 9 CTAs running
Shared mode is : 1
GPGPU-Sim uArch: core:  4, cta: 1 initialized @(180737,0)
GPGPU-Sim uArch: Shader 3 finished CTA #1 (181020,0), 9 CTAs running
Shared mode is : 1
GPGPU-Sim uArch: core:  3, cta: 1 initialized @(181021,0)
GPGPU-Sim uArch: Shader 12 finished CTA #1 (186829,0), 9 CTAs running
Shared mode is : 1
GPGPU-Sim uArch: core: 12, cta: 1 initialized @(186830,0)
GPGPU-Sim uArch: Shader 11 finished CTA #1 (187329,0), 9 CTAs running
Shared mode is : 1
GPGPU-Sim uArch: core: 11, cta: 1 initialized @(187330,0)
GPGPU-Sim uArch: Shader 13 finished CTA #1 (187351,0), 9 CTAs running
Shared mode is : 1
GPGPU-Sim uArch: core: 13, cta: 1 initialized @(187352,0)
GPGPU-Sim uArch: Shader 0 finished CTA #1 (188054,0), 9 CTAs running
Shared mode is : 1
GPGPU-Sim uArch: core:  0, cta: 1 initialized @(188055,0)
GPGPU-Sim uArch: Shader 10 finished CTA #4 (201020,0), 9 CTAs running
Shared mode is : 1
GPGPU-Sim uArch: core: 10, cta: 4 initialized @(201021,0)
GPGPU-Sim uArch: Shader 9 finished CTA #4 (201678,0), 9 CTAs running
Shared mode is : 1
GPGPU-Sim uArch: core:  9, cta: 4 initialized @(201679,0)
GPGPU-Sim uArch: Shader 6 finished CTA #2 (203989,0), 9 CTAs running
Shared mode is : 1
GPGPU-Sim uArch: core:  6, cta: 2 initialized @(203990,0)
GPGPU-Sim uArch: Shader 5 finished CTA #2 (204917,0), 9 CTAs running
Shared mode is : 1
GPGPU-Sim uArch: core:  5, cta: 2 initialized @(204918,0)
GPGPU-Sim uArch: Shader 7 finished CTA #2 (205180,0), 9 CTAs running
Shared mode is : 1
GPGPU-Sim uArch: core:  7, cta: 2 initialized @(205181,0)
GPGPU-Sim uArch: Shader 2 finished CTA #5 (205745,0), 9 CTAs running
Shared mode is : 1
GPGPU-Sim uArch: core:  2, cta: 5 initialized @(205746,0)
GPGPU-Sim uArch: Shader 8 finished CTA #2 (205914,0), 9 CTAs running
Shared mode is : 1
GPGPU-Sim uArch: core:  8, cta: 2 initialized @(205915,0)
GPGPU-Sim uArch: Shader 0 finished CTA #4 (213122,0), 9 CTAs running
Shared mode is : 1
GPGPU-Sim uArch: core:  0, cta: 4 initialized @(213123,0)
GPGPU-Sim uArch: Shader 1 finished CTA #5 (213257,0), 9 CTAs running
Shared mode is : 1
GPGPU-Sim uArch: core:  1, cta: 5 initialized @(213258,0)
GPGPU-Sim uArch: Shader 1 finished CTA #4 (215824,0), 9 CTAs running
Shared mode is : 1
GPGPU-Sim uArch: core:  1, cta: 4 initialized @(215825,0)
GPGPU-Sim uArch: Shader 3 finished CTA #6 (217069,0), 9 CTAs running
Shared mode is : 1
GPGPU-Sim uArch: core:  3, cta: 6 initialized @(217070,0)
GPGPU-Sim uArch: Shader 12 finished CTA #6 (217336,0), 9 CTAs running
Shared mode is : 1
GPGPU-Sim uArch: core: 12, cta: 6 initialized @(217337,0)
GPGPU-Sim uArch: Shader 4 finished CTA #2 (218798,0), 9 CTAs running
Shared mode is : 1
GPGPU-Sim uArch: core:  4, cta: 2 initialized @(218799,0)
GPGPU-Sim uArch: Shader 11 finished CTA #5 (221678,0), 9 CTAs running
Shared mode is : 1
GPGPU-Sim uArch: core: 11, cta: 5 initialized @(221679,0)
GPGPU-Sim uArch: Shader 10 finished CTA #5 (226489,0), 9 CTAs running
Shared mode is : 1
GPGPU-Sim uArch: core: 10, cta: 5 initialized @(226490,0)
GPGPU-Sim uArch: Shader 9 finished CTA #5 (227113,0), 9 CTAs running
Shared mode is : 1
GPGPU-Sim uArch: core:  9, cta: 5 initialized @(227114,0)
GPGPU-Sim uArch: Shader 13 finished CTA #2 (229512,0), 9 CTAs running
Shared mode is : 1
GPGPU-Sim uArch: core: 13, cta: 2 initialized @(229513,0)
GPGPU-Sim uArch: Shader 2 finished CTA #6 (236956,0), 9 CTAs running
Shared mode is : 1
GPGPU-Sim uArch: core:  2, cta: 6 initialized @(236957,0)
GPGPU-Sim uArch: Shader 6 finished CTA #7 (237617,0), 9 CTAs running
Shared mode is : 1
GPGPU-Sim uArch: core:  6, cta: 7 initialized @(237618,0)
GPGPU-Sim uArch: Shader 5 finished CTA #7 (238481,0), 9 CTAs running
Shared mode is : 1
GPGPU-Sim uArch: core:  5, cta: 7 initialized @(238482,0)
GPGPU-Sim uArch: Shader 13 finished CTA #7 (238593,0), 9 CTAs running
Shared mode is : 1
GPGPU-Sim uArch: core: 13, cta: 7 initialized @(238594,0)
GPGPU-Sim uArch: Shader 12 finished CTA #7 (239835,0), 9 CTAs running
Shared mode is : 1
GPGPU-Sim uArch: core: 12, cta: 7 initialized @(239836,0)
GPGPU-Sim uArch: Shader 11 finished CTA #6 (240138,0), 9 CTAs running
Shared mode is : 1
GPGPU-Sim uArch: core: 11, cta: 6 initialized @(240139,0)
GPGPU-Sim uArch: Shader 8 finished CTA #3 (240977,0), 9 CTAs running
Shared mode is : 1
GPGPU-Sim uArch: core:  8, cta: 3 initialized @(240978,0)
GPGPU-Sim uArch: Shader 7 finished CTA #3 (241324,0), 9 CTAs running
Shared mode is : 1
GPGPU-Sim uArch: core:  7, cta: 3 initialized @(241325,0)
GPGPU-Sim uArch: Shader 4 finished CTA #3 (246885,0), 9 CTAs running
Shared mode is : 1
GPGPU-Sim uArch: core:  4, cta: 3 initialized @(246886,0)
GPGPU-Sim uArch: Shader 0 finished CTA #5 (259227,0), 9 CTAs running
Shared mode is : 1
GPGPU-Sim uArch: core:  0, cta: 5 initialized @(259228,0)
GPGPU-Sim uArch: Shader 1 finished CTA #6 (260857,0), 9 CTAs running
Shared mode is : 1
GPGPU-Sim uArch: core:  1, cta: 6 initialized @(260858,0)
GPGPU-Sim uArch: Shader 3 finished CTA #7 (261527,0), 9 CTAs running
Shared mode is : 1
GPGPU-Sim uArch: core:  3, cta: 7 initialized @(261528,0)
GPGPU-Sim uArch: Shader 10 finished CTA #6 (270215,0), 9 CTAs running
Shared mode is : 1
GPGPU-Sim uArch: core: 10, cta: 6 initialized @(270216,0)
GPGPU-Sim uArch: Shader 9 finished CTA #6 (271044,0), 9 CTAs running
Shared mode is : 1
GPGPU-Sim uArch: core:  9, cta: 6 initialized @(271045,0)
GPGPU-Sim uArch: Shader 8 finished CTA #4 (290203,0), 9 CTAs running
Shared mode is : 1
GPGPU-Sim uArch: core:  8, cta: 4 initialized @(290204,0)
GPGPU-Sim uArch: Shader 4 finished CTA #4 (293722,0), 9 CTAs running
Shared mode is : 1
GPGPU-Sim uArch: core:  4, cta: 4 initialized @(293723,0)
GPGPU-Sim uArch: Shader 2 finished CTA #7 (294450,0), 9 CTAs running
Shared mode is : 1
GPGPU-Sim uArch: core:  2, cta: 7 initialized @(294451,0)
GPGPU-Sim uArch: Shader 0 finished CTA #6 (302424,0), 9 CTAs running
Shared mode is : 1
GPGPU-Sim uArch: core:  0, cta: 6 initialized @(302425,0)
GPGPU-Sim uArch: Shader 11 finished CTA #7 (305204,0), 9 CTAs running
Shared mode is : 1
GPGPU-Sim uArch: core: 11, cta: 7 initialized @(305205,0)
GPGPU-Sim uArch: Shader 5 finished CTA #8 (309456,0), 9 CTAs running
Shared mode is : 1
GPGPU-Sim uArch: core:  5, cta: 8 initialized @(309457,0)
GPGPU-Sim uArch: Shader 6 finished CTA #8 (311648,0), 9 CTAs running
Shared mode is : 1
GPGPU-Sim uArch: core:  6, cta: 8 initialized @(311649,0)
GPGPU-Sim uArch: Shader 12 finished CTA #8 (312757,0), 9 CTAs running
Shared mode is : 1
GPGPU-Sim uArch: core: 12, cta: 8 initialized @(312758,0)
GPGPU-Sim uArch: Shader 13 finished CTA #8 (312887,0), 9 CTAs running
Shared mode is : 1
GPGPU-Sim uArch: core: 13, cta: 8 initialized @(312888,0)
GPGPU-Sim uArch: Shader 7 finished CTA #8 (315151,0), 9 CTAs running
Shared mode is : 1
GPGPU-Sim uArch: core:  7, cta: 8 initialized @(315152,0)
GPGPU-Sim uArch: Shader 3 finished CTA #8 (332262,0), 9 CTAs running
Shared mode is : 1
GPGPU-Sim uArch: core:  3, cta: 8 initialized @(332263,0)
GPGPU-Sim uArch: Shader 3 finished CTA #0 (337358,0), 9 CTAs running
Shared mode is : 1
GPGPU-Sim uArch: core:  3, cta: 0 initialized @(337359,0)
GPGPU-Sim uArch: Shader 4 finished CTA #0 (337577,0), 9 CTAs running
Shared mode is : 1
GPGPU-Sim uArch: core:  4, cta: 0 initialized @(337578,0)
GPGPU-Sim uArch: Shader 2 finished CTA #0 (338079,0), 9 CTAs running
Shared mode is : 1
GPGPU-Sim uArch: core:  2, cta: 0 initialized @(338080,0)
GPGPU-Sim uArch: Shader 1 finished CTA #0 (338579,0), 9 CTAs running
Shared mode is : 1
GPGPU-Sim uArch: core:  1, cta: 0 initialized @(338580,0)
GPGPU-Sim uArch: Shader 10 finished CTA #7 (338875,0), 9 CTAs running
Shared mode is : 1
GPGPU-Sim uArch: core: 10, cta: 7 initialized @(338876,0)
GPGPU-Sim uArch: Shader 9 finished CTA #7 (340196,0), 9 CTAs running
Shared mode is : 1
GPGPU-Sim uArch: core:  9, cta: 7 initialized @(340197,0)
GPGPU-Sim uArch: Shader 10 finished CTA #0 (340409,0), 9 CTAs running
Shared mode is : 1
GPGPU-Sim uArch: core: 10, cta: 0 initialized @(340410,0)
GPGPU-Sim uArch: Shader 9 finished CTA #0 (341039,0), 9 CTAs running
Shared mode is : 1
GPGPU-Sim uArch: core:  9, cta: 0 initialized @(341040,0)
GPGPU-Sim uArch: Shader 11 finished CTA #0 (341675,0), 9 CTAs running
Shared mode is : 1
GPGPU-Sim uArch: core: 11, cta: 0 initialized @(341676,0)
GPGPU-Sim uArch: Shader 5 finished CTA #0 (341999,0), 9 CTAs running
Shared mode is : 1
GPGPU-Sim uArch: core:  5, cta: 0 initialized @(342000,0)
GPGPU-Sim uArch: Shader 12 finished CTA #0 (342236,0), 9 CTAs running
Shared mode is : 1
GPGPU-Sim uArch: core: 12, cta: 0 initialized @(342237,0)
GPGPU-Sim uArch: Shader 6 finished CTA #0 (342660,0), 9 CTAs running
Shared mode is : 1
GPGPU-Sim uArch: core:  6, cta: 0 initialized @(342661,0)
GPGPU-Sim uArch: Shader 1 finished CTA #7 (344405,0), 9 CTAs running
Shared mode is : 1
GPGPU-Sim uArch: core:  1, cta: 7 initialized @(344406,0)
GPGPU-Sim uArch: Shader 8 finished CTA #0 (345487,0), 9 CTAs running
Shared mode is : 1
GPGPU-Sim uArch: core:  8, cta: 0 initialized @(345488,0)
GPGPU-Sim uArch: Shader 7 finished CTA #0 (346220,0), 9 CTAs running
Shared mode is : 1
GPGPU-Sim uArch: core:  7, cta: 0 initialized @(346221,0)
GPGPU-Sim uArch: Shader 13 finished CTA #0 (348138,0), 9 CTAs running
Shared mode is : 1
GPGPU-Sim uArch: core: 13, cta: 0 initialized @(348139,0)
GPGPU-Sim uArch: Shader 1 finished CTA #1 (348340,0), 9 CTAs running
Shared mode is : 1
GPGPU-Sim uArch: core:  1, cta: 1 initialized @(348341,0)
GPGPU-Sim uArch: Shader 2 finished CTA #1 (348856,0), 9 CTAs running
Shared mode is : 1
GPGPU-Sim uArch: core:  2, cta: 1 initialized @(348857,0)
GPGPU-Sim uArch: Shader 6 finished CTA #1 (348872,0), 9 CTAs running
Shared mode is : 1
GPGPU-Sim uArch: core:  6, cta: 1 initialized @(348873,0)
GPGPU-Sim uArch: Shader 5 finished CTA #1 (350449,0), 9 CTAs running
Shared mode is : 1
GPGPU-Sim uArch: core:  5, cta: 1 initialized @(350450,0)
GPGPU-Sim uArch: Shader 4 finished CTA #1 (350598,0), 9 CTAs running
Shared mode is : 1
GPGPU-Sim uArch: core:  4, cta: 1 initialized @(350599,0)
GPGPU-Sim uArch: Shader 0 finished CTA #0 (350653,0), 9 CTAs running
Shared mode is : 1
GPGPU-Sim uArch: core:  0, cta: 0 initialized @(350654,0)
GPGPU-Sim uArch: Shader 8 finished CTA #1 (361179,0), 9 CTAs running
Shared mode is : 1
GPGPU-Sim uArch: core:  8, cta: 1 initialized @(361180,0)
GPGPU-Sim uArch: Shader 10 finished CTA #1 (361561,0), 9 CTAs running
Shared mode is : 1
GPGPU-Sim uArch: core: 10, cta: 1 initialized @(361562,0)
GPGPU-Sim uArch: Shader 9 finished CTA #1 (361935,0), 9 CTAs running
Shared mode is : 1
GPGPU-Sim uArch: core:  9, cta: 1 initialized @(361936,0)
GPGPU-Sim uArch: Shader 7 finished CTA #1 (363744,0), 9 CTAs running
Shared mode is : 1
GPGPU-Sim uArch: core:  7, cta: 1 initialized @(363745,0)
GPGPU-Sim uArch: Shader 0 finished CTA #1 (373998,0), 9 CTAs running
Shared mode is : 1
GPGPU-Sim uArch: core:  0, cta: 1 initialized @(373999,0)
GPGPU-Sim uArch: Shader 13 finished CTA #1 (374915,0), 9 CTAs running
Shared mode is : 1
GPGPU-Sim uArch: core: 13, cta: 1 initialized @(374916,0)
GPGPU-Sim uArch: Shader 11 finished CTA #1 (376256,0), 9 CTAs running
Shared mode is : 1
GPGPU-Sim uArch: core: 11, cta: 1 initialized @(376257,0)
GPGPU-Sim uArch: Shader 12 finished CTA #1 (376828,0), 9 CTAs running
Shared mode is : 1
GPGPU-Sim uArch: core: 12, cta: 1 initialized @(376829,0)
GPGPU-Sim uArch: Shader 3 finished CTA #1 (377704,0), 9 CTAs running
Shared mode is : 1
GPGPU-Sim uArch: core:  3, cta: 1 initialized @(377705,0)
GPGPU-Sim uArch: Shader 0 finished CTA #7 (381880,0), 9 CTAs running
Shared mode is : 1
GPGPU-Sim uArch: core:  0, cta: 7 initialized @(381881,0)
GPGPU-Sim uArch: Shader 2 finished CTA #8 (415422,0), 9 CTAs running
Shared mode is : 1
GPGPU-Sim uArch: core:  2, cta: 8 initialized @(415423,0)
GPGPU-Sim uArch: Shader 11 finished CTA #8 (426161,0), 9 CTAs running
Shared mode is : 1
GPGPU-Sim uArch: core: 11, cta: 8 initialized @(426162,0)
GPGPU-Sim uArch: Shader 12 finished CTA #2 (441675,0), 9 CTAs running
Shared mode is : 1
GPGPU-Sim uArch: core: 12, cta: 2 initialized @(441676,0)
GPGPU-Sim uArch: Shader 7 finished CTA #6 (443523,0), 9 CTAs running
Shared mode is : 1
GPGPU-Sim uArch: core:  7, cta: 6 initialized @(443524,0)
GPGPU-Sim uArch: Shader 8 finished CTA #6 (449729,0), 9 CTAs running
Shared mode is : 1
GPGPU-Sim uArch: core:  8, cta: 6 initialized @(449730,0)
GPGPU-Sim uArch: Shader 3 finished CTA #2 (451426,0), 9 CTAs running
Shared mode is : 1
GPGPU-Sim uArch: core:  3, cta: 2 initialized @(451427,0)
GPGPU-Sim uArch: Shader 6 finished CTA #3 (451727,0), 9 CTAs running
Shared mode is : 1
GPGPU-Sim uArch: core:  6, cta: 3 initialized @(451728,0)
GPGPU-Sim uArch: Shader 5 finished CTA #3 (452035,0), 9 CTAs running
Shared mode is : 1
GPGPU-Sim uArch: core:  5, cta: 3 initialized @(452036,0)
GPGPU-Sim uArch: Shader 12 finished CTA #9 (452075,0), 9 CTAs running
Shared mode is : 1
GPGPU-Sim uArch: core: 12, cta: 9 initialized @(452076,0)
GPGPU-Sim uArch: Shader 4 finished CTA #6 (456413,0), 9 CTAs running
Shared mode is : 1
GPGPU-Sim uArch: core:  4, cta: 6 initialized @(456414,0)
GPGPU-Sim uArch: Shader 13 finished CTA #3 (457061,0), 9 CTAs running
Shared mode is : 1
GPGPU-Sim uArch: core: 13, cta: 3 initialized @(457062,0)
GPGPU-Sim uArch: Shader 6 finished CTA #9 (458964,0), 9 CTAs running
Shared mode is : 1
GPGPU-Sim uArch: core:  6, cta: 9 initialized @(458965,0)
GPGPU-Sim uArch: Shader 4 finished CTA #9 (459702,0), 9 CTAs running
Shared mode is : 1
GPGPU-Sim uArch: core:  4, cta: 9 initialized @(459703,0)
GPGPU-Sim uArch: Shader 13 finished CTA #9 (461130,0), 9 CTAs running
Shared mode is : 1
GPGPU-Sim uArch: core: 13, cta: 9 initialized @(461131,0)
GPGPU-Sim uArch: Shader 11 finished CTA #2 (467399,0), 9 CTAs running
GPGPU-Sim uArch: Shader 5 finished CTA #9 (467942,0), 9 CTAs running
GPGPU-Sim uArch: Shader 8 finished CTA #9 (471100,0), 9 CTAs running
GPGPU-Sim uArch: Shader 7 finished CTA #9 (472211,0), 9 CTAs running
GPGPU-Sim uArch: Shader 2 finished CTA #2 (478984,0), 9 CTAs running
GPGPU-Sim uArch: Shader 6 finished CTA #6 (493267,0), 9 CTAs running
GPGPU-Sim uArch: Shader 12 finished CTA #3 (493802,0), 9 CTAs running
GPGPU-Sim uArch: Shader 5 finished CTA #6 (494158,0), 8 CTAs running
GPGPU-Sim uArch: Shader 8 finished CTA #7 (496861,0), 8 CTAs running
GPGPU-Sim uArch: Shader 1 finished CTA #2 (497119,0), 9 CTAs running
GPGPU-Sim uArch: Shader 9 finished CTA #2 (501217,0), 9 CTAs running
GPGPU-Sim uArch: Shader 10 finished CTA #2 (501681,0), 9 CTAs running
GPGPU-Sim uArch: Shader 0 finished CTA #2 (508937,0), 9 CTAs running
GPGPU-Sim uArch: Shader 3 finished CTA #9 (513351,0), 9 CTAs running
GPGPU-Sim uArch: Shader 10 finished CTA #0 (517116,0), 8 CTAs running
GPGPU-Sim uArch: Shader 8 finished CTA #0 (517274,0), 7 CTAs running
GPGPU-Sim uArch: Shader 9 finished CTA #0 (517674,0), 8 CTAs running
GPGPU-Sim uArch: Shader 11 finished CTA #0 (519833,0), 8 CTAs running
GPGPU-Sim uArch: Shader 10 finished CTA #8 (519932,0), 7 CTAs running
GPGPU-Sim uArch: Shader 5 finished CTA #0 (520449,0), 7 CTAs running
GPGPU-Sim uArch: Shader 12 finished CTA #0 (521184,0), 8 CTAs running
GPGPU-Sim uArch: Shader 6 finished CTA #0 (521471,0), 8 CTAs running
GPGPU-Sim uArch: Shader 0 finished CTA #0 (521780,0), 8 CTAs running
GPGPU-Sim uArch: Shader 1 finished CTA #0 (523860,0), 8 CTAs running
GPGPU-Sim uArch: Shader 2 finished CTA #0 (523954,0), 8 CTAs running
GPGPU-Sim uArch: Shader 4 finished CTA #0 (524600,0), 9 CTAs running
GPGPU-Sim uArch: Shader 3 finished CTA #0 (525543,0), 8 CTAs running
GPGPU-Sim uArch: Shader 7 finished CTA #0 (527027,0), 8 CTAs running
GPGPU-Sim uArch: Shader 13 finished CTA #0 (527587,0), 9 CTAs running
GPGPU-Sim uArch: Shader 7 finished CTA #4 (527971,0), 7 CTAs running
GPGPU-Sim uArch: Shader 1 finished CTA #1 (532804,0), 7 CTAs running
GPGPU-Sim uArch: Shader 3 finished CTA #3 (533018,0), 7 CTAs running
GPGPU-Sim uArch: Shader 4 finished CTA #7 (534074,0), 8 CTAs running
GPGPU-Sim uArch: Shader 4 finished CTA #1 (539356,0), 7 CTAs running
GPGPU-Sim uArch: Shader 13 finished CTA #6 (540143,0), 8 CTAs running
GPGPU-Sim uArch: Shader 5 finished CTA #1 (540161,0), 6 CTAs running
GPGPU-Sim uArch: Shader 6 finished CTA #1 (541538,0), 7 CTAs running
GPGPU-Sim uArch: Shader 0 finished CTA #8 (541907,0), 7 CTAs running
GPGPU-Sim uArch: Shader 2 finished CTA #1 (542882,0), 7 CTAs running
GPGPU-Sim uArch: Shader 7 finished CTA #7 (543106,0), 6 CTAs running
GPGPU-Sim uArch: Shader 8 finished CTA #1 (543770,0), 6 CTAs running
GPGPU-Sim uArch: Shader 10 finished CTA #1 (543958,0), 6 CTAs running
GPGPU-Sim uArch: Shader 9 finished CTA #1 (544997,0), 7 CTAs running
GPGPU-Sim uArch: Shader 7 finished CTA #1 (550772,0), 5 CTAs running
GPGPU-Sim uArch: Shader 2 finished CTA #3 (553317,0), 6 CTAs running
GPGPU-Sim uArch: Shader 6 finished CTA #4 (554182,0), 6 CTAs running
GPGPU-Sim uArch: Shader 5 finished CTA #4 (555033,0), 5 CTAs running
GPGPU-Sim uArch: Shader 1 finished CTA #8 (556796,0), 6 CTAs running
GPGPU-Sim uArch: Shader 9 finished CTA #8 (556818,0), 6 CTAs running
GPGPU-Sim uArch: Shader 12 finished CTA #1 (559085,0), 7 CTAs running
GPGPU-Sim uArch: Shader 11 finished CTA #1 (559580,0), 7 CTAs running
GPGPU-Sim uArch: Shader 13 finished CTA #1 (559873,0), 7 CTAs running
GPGPU-Sim uArch: Shader 0 finished CTA #1 (562159,0), 6 CTAs running
GPGPU-Sim uArch: Shader 8 finished CTA #8 (563509,0), 5 CTAs running
GPGPU-Sim uArch: Shader 11 finished CTA #3 (563761,0), 6 CTAs running
GPGPU-Sim uArch: Shader 13 finished CTA #4 (566008,0), 6 CTAs running
GPGPU-Sim uArch: Shader 10 finished CTA #3 (570893,0), 5 CTAs running
GPGPU-Sim uArch: Shader 9 finished CTA #3 (571055,0), 5 CTAs running
GPGPU-Sim uArch: Shader 3 finished CTA #1 (573754,0), 6 CTAs running
GPGPU-Sim uArch: Shader 12 finished CTA #4 (582202,0), 6 CTAs running
GPGPU-Sim uArch: Shader 10 finished CTA #9 (586194,0), 4 CTAs running
GPGPU-Sim uArch: Shader 1 finished CTA #3 (588403,0), 5 CTAs running
GPGPU-Sim uArch: Shader 9 finished CTA #9 (596696,0), 4 CTAs running
GPGPU-Sim uArch: Shader 1 finished CTA #9 (597151,0), 4 CTAs running
GPGPU-Sim uArch: Shader 2 finished CTA #9 (597677,0), 5 CTAs running
GPGPU-Sim uArch: Shader 4 finished CTA #8 (598921,0), 6 CTAs running
GPGPU-Sim uArch: Shader 0 finished CTA #3 (601022,0), 5 CTAs running
GPGPU-Sim uArch: Shader 0 finished CTA #9 (604674,0), 4 CTAs running
GPGPU-Sim uArch: Shader 3 finished CTA #4 (604874,0), 5 CTAs running
GPGPU-Sim uArch: Shader 11 finished CTA #9 (611410,0), 5 CTAs running
GPGPU-Sim uArch: Shader 2 finished CTA #4 (647393,0), 4 CTAs running
GPGPU-Sim uArch: Shader 8 finished CTA #5 (650419,0), 4 CTAs running
GPGPU-Sim uArch: Shader 11 finished CTA #4 (653720,0), 4 CTAs running
GPGPU-Sim uArch: Shader 13 finished CTA #5 (654631,0), 5 CTAs running
GPGPU-Sim uArch: Shader 7 finished CTA #5 (655097,0), 4 CTAs running
GPGPU-Sim uArch: Shader 6 finished CTA #5 (655372,0), 5 CTAs running
GPGPU-Sim uArch: Shader 12 finished CTA #5 (655530,0), 5 CTAs running
GPGPU-Sim uArch: Shader 4 finished CTA #5 (656474,0), 5 CTAs running
GPGPU-Sim uArch: Shader 8 finished CTA #2 (660182,0), 3 CTAs running
GPGPU-Sim uArch: Shader 7 finished CTA #2 (667212,0), 3 CTAs running
GPGPU-Sim uArch: Shader 5 finished CTA #5 (677998,0), 4 CTAs running
GPGPU-Sim uArch: Shader 12 finished CTA #6 (678548,0), 4 CTAs running
GPGPU-Sim uArch: Shader 4 finished CTA #2 (687336,0), 4 CTAs running
GPGPU-Sim uArch: Shader 5 finished CTA #2 (689090,0), 3 CTAs running
GPGPU-Sim uArch: Shader 13 finished CTA #7 (689311,0), 4 CTAs running
GPGPU-Sim uArch: Shader 6 finished CTA #2 (689379,0), 4 CTAs running
GPGPU-Sim uArch: Shader 12 finished CTA #7 (689653,0), 3 CTAs running
GPGPU-Sim uArch: Shader 5 finished CTA #7 (690559,0), 2 CTAs running
GPGPU-Sim uArch: Shader 11 finished CTA #6 (690800,0), 3 CTAs running
GPGPU-Sim uArch: Shader 6 finished CTA #7 (691320,0), 3 CTAs running
GPGPU-Sim uArch: Shader 10 finished CTA #4 (691659,0), 3 CTAs running
GPGPU-Sim uArch: Shader 3 finished CTA #6 (693284,0), 4 CTAs running
GPGPU-Sim uArch: Shader 10 finished CTA #6 (693682,0), 2 CTAs running
GPGPU-Sim uArch: Shader 9 finished CTA #6 (694618,0), 3 CTAs running
GPGPU-Sim uArch: Shader 2 finished CTA #6 (699066,0), 3 CTAs running
GPGPU-Sim uArch: Shader 3 finished CTA #5 (699067,0), 3 CTAs running
GPGPU-Sim uArch: Shader 13 finished CTA #2 (700489,0), 3 CTAs running
GPGPU-Sim uArch: Shader 8 finished CTA #3 (704388,0), 2 CTAs running
GPGPU-Sim uArch: Shader 7 finished CTA #3 (706621,0), 2 CTAs running
GPGPU-Sim uArch: Shader 4 finished CTA #3 (706777,0), 3 CTAs running
GPGPU-Sim uArch: Shader 7 finished CTA #8 (708260,0), 1 CTAs running
GPGPU-Sim uArch: Shader 0 finished CTA #4 (712366,0), 3 CTAs running
GPGPU-Sim uArch: Shader 9 finished CTA #4 (717848,0), 2 CTAs running
GPGPU-Sim uArch: Shader 1 finished CTA #6 (721131,0), 3 CTAs running
GPGPU-Sim uArch: Shader 0 finished CTA #6 (723003,0), 2 CTAs running
GPGPU-Sim uArch: Shader 13 finished CTA #8 (729558,0), 2 CTAs running
GPGPU-Sim uArch: Shader 3 finished CTA #7 (732264,0), 2 CTAs running
GPGPU-Sim uArch: Shader 5 finished CTA #8 (732960,0), 1 CTAs running
GPGPU-Sim uArch: Shader 6 finished CTA #8 (733329,0), 2 CTAs running
GPGPU-Sim uArch: Shader 1 finished CTA #4 (733523,0), 2 CTAs running
GPGPU-Sim uArch: Shader 9 finished CTA #5 (736959,0), 1 CTAs running
GPGPU-Sim uArch: Shader 10 finished CTA #5 (737304,0), 1 CTAs running
GPGPU-Sim uArch: Shader 2 finished CTA #7 (741370,0), 2 CTAs running
GPGPU-Sim uArch: Shader 9 finished CTA #7 (742003,0), 0 CTAs running
GPGPU-Sim uArch: Shader 9 empty (release kernel 1 '_Z13GPU_laplace3diiiiPfS_').
GPGPU-Sim uArch: Shader 10 finished CTA #7 (742318,0), 0 CTAs running
GPGPU-Sim uArch: Shader 10 empty (release kernel 1 '_Z13GPU_laplace3diiiiPfS_').
GPGPU-Sim uArch: Shader 8 finished CTA #4 (746134,0), 1 CTAs running
GPGPU-Sim uArch: Shader 11 finished CTA #7 (749566,0), 2 CTAs running
GPGPU-Sim uArch: Shader 2 finished CTA #5 (752190,0), 1 CTAs running
GPGPU-Sim uArch: Shader 1 finished CTA #5 (752213,0), 1 CTAs running
GPGPU-Sim uArch: Shader 12 finished CTA #8 (752459,0), 2 CTAs running
GPGPU-Sim uArch: Shader 0 finished CTA #5 (759867,0), 1 CTAs running
GPGPU-Sim uArch: Shader 11 finished CTA #5 (761131,0), 1 CTAs running
GPGPU-Sim uArch: Shader 4 finished CTA #4 (765072,0), 2 CTAs running
GPGPU-Sim uArch: Shader 1 finished CTA #7 (766097,0), 0 CTAs running
GPGPU-Sim uArch: Shader 1 empty (release kernel 1 '_Z13GPU_laplace3diiiiPfS_').
GPGPU-Sim uArch: Shader 3 finished CTA #8 (769227,0), 1 CTAs running
GPGPU-Sim uArch: Shader 0 finished CTA #7 (771085,0), 0 CTAs running
GPGPU-Sim uArch: Shader 0 empty (release kernel 1 '_Z13GPU_laplace3diiiiPfS_').
GPGPU-Sim uArch: Shader 13 finished CTA #9 (788475,0), 1 CTAs running
GPGPU-Sim uArch: Shader 4 finished CTA #9 (788550,0), 1 CTAs running
GPGPU-Sim uArch: Shader 6 finished CTA #9 (789097,0), 1 CTAs running
GPGPU-Sim uArch: Shader 8 finished CTA #6 (789304,0), 0 CTAs running
GPGPU-Sim uArch: Shader 8 empty (release kernel 1 '_Z13GPU_laplace3diiiiPfS_').
GPGPU-Sim uArch: Shader 7 finished CTA #6 (789319,0), 0 CTAs running
GPGPU-Sim uArch: Shader 7 empty (release kernel 1 '_Z13GPU_laplace3diiiiPfS_').
GPGPU-Sim uArch: Shader 11 finished CTA #8 (790605,0), 0 CTAs running
GPGPU-Sim uArch: Shader 11 empty (release kernel 1 '_Z13GPU_laplace3diiiiPfS_').
GPGPU-Sim uArch: Shader 2 finished CTA #8 (790662,0), 0 CTAs running
GPGPU-Sim uArch: Shader 2 empty (release kernel 1 '_Z13GPU_laplace3diiiiPfS_').
GPGPU-Sim uArch: Shader 12 finished CTA #9 (796204,0), 1 CTAs running
GPGPU-Sim uArch: Shader 5 finished CTA #3 (798284,0), 0 CTAs running
GPGPU-Sim uArch: Shader 5 empty (release kernel 1 '_Z13GPU_laplace3diiiiPfS_').
GPGPU-Sim uArch: Shader 6 finished CTA #3 (798539,0), 0 CTAs running
GPGPU-Sim uArch: Shader 6 empty (release kernel 1 '_Z13GPU_laplace3diiiiPfS_').
GPGPU-Sim uArch: Shader 4 finished CTA #6 (803528,0), 0 CTAs running
GPGPU-Sim uArch: Shader 4 empty (release kernel 1 '_Z13GPU_laplace3diiiiPfS_').
GPGPU-Sim uArch: Shader 13 finished CTA #3 (803842,0), 0 CTAs running
GPGPU-Sim uArch: Shader 13 empty (release kernel 1 '_Z13GPU_laplace3diiiiPfS_').
GPGPU-Sim uArch: Shader 12 finished CTA #2 (805159,0), 0 CTAs running
GPGPU-Sim uArch: Shader 12 empty (release kernel 1 '_Z13GPU_laplace3diiiiPfS_').
GPGPU-Sim uArch: Shader 3 finished CTA #2 (814252,0), 0 CTAs running
GPGPU-Sim uArch: Shader 3 empty (release kernel 1 '_Z13GPU_laplace3diiiiPfS_').
GPGPU-Sim uArch: GPU detected kernel '_Z13GPU_laplace3diiiiPfS_' finished on shader 3.
kernel_name = _Z13GPU_laplace3diiiiPfS_ 
kernel_launch_uid = 1 
gpu_sim_cycle = 814253
gpu_sim_insn = 356907776
gpu_ipc =     438.3254
gpu_tot_sim_cycle = 814253
gpu_tot_sim_insn = 356907776
gpu_tot_ipc =     438.3254
gpu_tot_issued_cta = 0
gpu_stall_dramfull = 724080
gpu_stall_icnt2sh    = 4114729
gpu_total_sim_rate=472725

========= Core cache stats =========
L1I_cache:
	L1I_total_cache_accesses = 6993824
	L1I_total_cache_misses = 3122
	L1I_total_cache_miss_rate = 0.0004
	L1I_total_cache_pending_hits = 0
	L1I_total_cache_reservation_fails = 4869
L1D_cache:
	L1D_cache_core[0]: Access = 63400, Miss = 63400, Miss_rate = 1.000, Pending_hits = 0, Reservation_fails = 267564
	L1D_cache_core[1]: Access = 64200, Miss = 64200, Miss_rate = 1.000, Pending_hits = 0, Reservation_fails = 266143
	L1D_cache_core[2]: Access = 65100, Miss = 65100, Miss_rate = 1.000, Pending_hits = 0, Reservation_fails = 274422
	L1D_cache_core[3]: Access = 63100, Miss = 63100, Miss_rate = 1.000, Pending_hits = 0, Reservation_fails = 275289
	L1D_cache_core[4]: Access = 67300, Miss = 67300, Miss_rate = 1.000, Pending_hits = 0, Reservation_fails = 264492
	L1D_cache_core[5]: Access = 64800, Miss = 64800, Miss_rate = 1.000, Pending_hits = 0, Reservation_fails = 258605
	L1D_cache_core[6]: Access = 67400, Miss = 67400, Miss_rate = 1.000, Pending_hits = 0, Reservation_fails = 253880
	L1D_cache_core[7]: Access = 63100, Miss = 63097, Miss_rate = 1.000, Pending_hits = 1, Reservation_fails = 233679
	L1D_cache_core[8]: Access = 61200, Miss = 61198, Miss_rate = 1.000, Pending_hits = 0, Reservation_fails = 254723
	L1D_cache_core[9]: Access = 63400, Miss = 63400, Miss_rate = 1.000, Pending_hits = 0, Reservation_fails = 244553
	L1D_cache_core[10]: Access = 62400, Miss = 62400, Miss_rate = 1.000, Pending_hits = 0, Reservation_fails = 232231
	L1D_cache_core[11]: Access = 65400, Miss = 65400, Miss_rate = 1.000, Pending_hits = 0, Reservation_fails = 278461
	L1D_cache_core[12]: Access = 67900, Miss = 67900, Miss_rate = 1.000, Pending_hits = 0, Reservation_fails = 259897
	L1D_cache_core[13]: Access = 65700, Miss = 65700, Miss_rate = 1.000, Pending_hits = 0, Reservation_fails = 238923
	L1D_total_cache_accesses = 904400
	L1D_total_cache_misses = 904395
	L1D_total_cache_miss_rate = 1.0000
	L1D_total_cache_pending_hits = 1
	L1D_total_cache_reservation_fails = 3602862
	L1D_cache_data_port_util = 0.000
	L1D_cache_fill_port_util = 0.064
L1C_cache:
	L1C_total_cache_accesses = 0
	L1C_total_cache_misses = 0
	L1C_total_cache_pending_hits = 0
	L1C_total_cache_reservation_fails = 0
L1T_cache:
	L1T_total_cache_accesses = 0
	L1T_total_cache_misses = 0
	L1T_total_cache_pending_hits = 0
	L1T_total_cache_reservation_fails = 0

Total_core_cache_stats:
	Total_core_cache_stats_breakdown[GLOBAL_ACC_R][HIT] = 4
	Total_core_cache_stats_breakdown[GLOBAL_ACC_R][HIT_RESERVED] = 1
	Total_core_cache_stats_breakdown[GLOBAL_ACC_R][MISS] = 699595
	Total_core_cache_stats_breakdown[GLOBAL_ACC_R][RESERVATION_FAIL] = 3538062
	Total_core_cache_stats_breakdown[GLOBAL_ACC_W][MISS] = 204800
	Total_core_cache_stats_breakdown[GLOBAL_ACC_W][RESERVATION_FAIL] = 64800
	Total_core_cache_stats_breakdown[INST_ACC_R][HIT] = 6990702
	Total_core_cache_stats_breakdown[INST_ACC_R][MISS] = 3122
	Total_core_cache_stats_breakdown[INST_ACC_R][RESERVATION_FAIL] = 4869
Shader 0 warp_id issue ditsribution:
warp_id:
0, 1, 2, 3, 4, 5, 6, 7, 8, 9, 10, 11, 12, 13, 14, 15, 16, 17, 18, 19, 20, 21, 22, 23, 24, 25, 26, 27, 28, 29, 30, 31, 32, 33, 34, 35, 36, 37, 38, 39, 40, 41, 42, 43, 44, 45, 46, 47, 48, 49, 50, 51, 52, 53, 54, 55, 56, 57, 58, 59, 60, 61, 62, 63, 64, 65, 66, 67, 68, 69, 70, 71, 72, 73, 74, 75, 76, 77, 78, 79, 
distro:
22068, 22068, 22095, 17499, 17499, 17499, 17499, 17499, 22068, 22068, 22095, 17499, 17499, 17499, 17499, 17499, 7256, 7256, 7265, 5733, 5733, 5733, 5733, 5733, 7556, 7556, 7565, 6033, 6033, 6033, 6033, 6033, 14812, 14812, 14830, 11766, 11766, 11766, 11766, 11766, 14512, 14512, 14530, 11466, 11466, 11466, 11466, 11466, 14512, 14512, 14530, 11466, 11466, 11466, 11466, 11466, 14812, 14812, 14830, 11766, 11766, 11766, 11766, 11766, 7256, 7256, 7265, 5733, 5733, 5733, 5733, 5733, 7256, 7256, 7265, 5733, 5733, 5733, 5733, 5733, 
gpgpu_n_tot_thrd_icount = 416711680
gpgpu_n_tot_w_icount = 13022240
gpgpu_n_stall_shd_mem = 4022462
gpgpu_n_mem_read_local = 0
gpgpu_n_mem_write_local = 0
gpgpu_n_mem_read_global = 699595
gpgpu_n_mem_write_global = 204800
gpgpu_n_mem_texture = 0
gpgpu_n_mem_const = 0
gpgpu_n_load_insn  = 8586000
gpgpu_n_store_insn = 6553600
gpgpu_n_shmem_insn = 58069600
gpgpu_n_tex_insn = 0
gpgpu_n_const_mem_insn = 0
gpgpu_n_param_mem_insn = 0
gpgpu_n_shmem_bkconflict = 0
gpgpu_n_cache_bkconflict = 0
gpgpu_n_intrawarp_mshr_merge = 0
gpgpu_n_cmem_portconflict = 0
gpgpu_stall_shd_mem[c_mem][bk_conf] = 0
gpgpu_stall_shd_mem[c_mem][mshr_rc] = 0
gpgpu_stall_shd_mem[c_mem][icnt_rc] = 0
gpgpu_stall_shd_mem[c_mem][data_port_stall] = 0
gpgpu_stall_shd_mem[t_mem][mshr_rc] = 0
gpgpu_stall_shd_mem[t_mem][icnt_rc] = 0
gpgpu_stall_shd_mem[t_mem][data_port_stall] = 0
gpgpu_stall_shd_mem[s_mem][bk_conf] = 0
gpgpu_stall_shd_mem[gl_mem][bk_conf] = 0
gpgpu_stall_shd_mem[gl_mem][coal_stall] = 4022462
gpgpu_stall_shd_mem[gl_mem][data_port_stall] = 0
gpgpu_stall_shd_mem[g_mem_ld][mshr_rc] = 0
gpgpu_stall_shd_mem[g_mem_ld][icnt_rc] = 0
gpgpu_stall_shd_mem[g_mem_ld][wb_icnt_rc] = 0
gpgpu_stall_shd_mem[g_mem_ld][wb_rsrv_fail] = 0
gpgpu_stall_shd_mem[g_mem_st][mshr_rc] = 0
gpgpu_stall_shd_mem[g_mem_st][icnt_rc] = 0
gpgpu_stall_shd_mem[g_mem_st][wb_icnt_rc] = 0
gpgpu_stall_shd_mem[g_mem_st][wb_rsrv_fail] = 0
gpgpu_stall_shd_mem[l_mem_ld][mshr_rc] = 0
gpgpu_stall_shd_mem[l_mem_ld][icnt_rc] = 0
gpgpu_stall_shd_mem[l_mem_ld][wb_icnt_rc] = 0
gpgpu_stall_shd_mem[l_mem_ld][wb_rsrv_fail] = 0
gpgpu_stall_shd_mem[l_mem_st][mshr_rc] = 0
gpgpu_stall_shd_mem[l_mem_st][icnt_rc] = 0
gpgpu_stall_shd_mem[l_mem_ld][wb_icnt_rc] = 0
gpgpu_stall_shd_mem[l_mem_ld][wb_rsrv_fail] = 0
gpu_reg_bank_conflict_stalls = 0
Warp Occupancy Distribution:
Stall:6600537	W0_Idle:113347	W0_Scoreboard:2273898	W1:153600	W2:0	W3:0	W4:0	W5:0	W6:0	W7:0	W8:0	W9:6000	W10:90000	W11:0	W12:768	W13:0	W14:0	W15:0	W16:0	W17:0	W18:18000	W19:0	W20:278192	W21:0	W22:0	W23:0	W24:0	W25:0	W26:0	W27:0	W28:0	W29:0	W30:0	W31:1009656	W32:11466024
traffic_breakdown_coretomem[GLOBAL_ACC_R] = 5596760 {8:699595,}
traffic_breakdown_coretomem[GLOBAL_ACC_W] = 27852800 {136:204800,}
traffic_breakdown_coretomem[INST_ACC_R] = 1120 {8:140,}
traffic_breakdown_memtocore[GLOBAL_ACC_R] = 95144920 {136:699595,}
traffic_breakdown_memtocore[GLOBAL_ACC_W] = 1638400 {8:204800,}
traffic_breakdown_memtocore[INST_ACC_R] = 19040 {136:140,}
Memory Partition 0: 
Cache L2_bank_000:
MSHR contents

Cache L2_bank_001:
MSHR contents

In Dram Latency Queue (total = 0): 
DRAM[0]: 16 bks, busW=4 BL=8 CL=12, tRRD=2 tCCD=6, tRCD=12 tRAS=28 tRP=12 tRC=40
n_cmd=1062068 n_nop=690114 n_act=43764 n_pre=43748 n_req=142221 n_rd=216174 n_write=68268 bw_util=0.5356
n_activity=1009526 dram_eff=0.5635
bk0: 11100a 828463i bk1: 13054a 790045i bk2: 14006a 786797i bk3: 14414a 768513i bk4: 13118a 785101i bk5: 13264a 785018i bk6: 12184a 788186i bk7: 15142a 745332i bk8: 13640a 790386i bk9: 14456a 776398i bk10: 11878a 811581i bk11: 12512a 808324i bk12: 13766a 787805i bk13: 16290a 738731i bk14: 13836a 768377i bk15: 13514a 771450i 
dram_util_bins: 0 0 0 0 0 0 0 0 0 0
dram_eff_bins: 0 0 0 0 0 0 0 0 0 0
mrqq: max=16 avg=8.72908
Memory Partition 1: 
Cache L2_bank_002:
MSHR contents

Cache L2_bank_003:
MSHR contents
MSHR: tag=0x831fdf80, atomic=0 1 entries : 0x7f4d6b4d3c90 :  mf: uid=11710755, sid03:w23, part=1, addr=0x831fdf80, load , size=128, unknown  status = IN_PARTITION_DRAM (814250), 

In Dram Latency Queue (total = 0): 
DRAM[1]: 16 bks, busW=4 BL=8 CL=12, tRRD=2 tCCD=6, tRCD=12 tRAS=28 tRP=12 tRC=40
n_cmd=1062068 n_nop=690096 n_act=44141 n_pre=44125 n_req=141853 n_rd=215438 n_write=68268 bw_util=0.5343
n_activity=1009973 dram_eff=0.5618
bk0: 12022a 806711i bk1: 11762a 814410i bk2: 15914a 751250i bk3: 14012a 789296i bk4: 13712a 777205i bk5: 11800a 809049i bk6: 13390a 757041i bk7: 13716a 761904i bk8: 15270a 764380i bk9: 12810a 810555i bk10: 12280a 808724i bk11: 11372a 821569i bk12: 15890a 747687i bk13: 14040a 773721i bk14: 14474a 759596i bk15: 12974a 792470i 
dram_util_bins: 0 0 0 0 0 0 0 0 0 0
dram_eff_bins: 0 0 0 0 0 0 0 0 0 0
mrqq: max=16 avg=8.39302
Memory Partition 2: 
Cache L2_bank_004:
MSHR contents

Cache L2_bank_005:
MSHR contents

In Dram Latency Queue (total = 0): 
DRAM[2]: 16 bks, busW=4 BL=8 CL=12, tRRD=2 tCCD=6, tRCD=12 tRAS=28 tRP=12 tRC=40
n_cmd=1062068 n_nop=687212 n_act=45238 n_pre=45222 n_req=142198 n_rd=216128 n_write=68268 bw_util=0.5356
n_activity=1009594 dram_eff=0.5634
bk0: 12978a 793139i bk1: 10846a 826536i bk2: 15046a 763757i bk3: 14300a 778301i bk4: 13180a 783184i bk5: 12844a 784736i bk6: 14366a 748109i bk7: 12376a 785320i bk8: 14056a 776259i bk9: 13716a 782407i bk10: 13038a 803197i bk11: 11674a 814024i bk12: 16160a 739244i bk13: 14212a 776336i bk14: 13786a 767581i bk15: 13550a 771295i 
dram_util_bins: 0 0 0 0 0 0 0 0 0 0
dram_eff_bins: 0 0 0 0 0 0 0 0 0 0
mrqq: max=16 avg=8.72776
Memory Partition 3: 
Cache L2_bank_006:
MSHR contents
MSHR: tag=0x831fdb80, atomic=0 1 entries : 0x7f4d6b482890 :  mf: uid=11710754, sid03:w22, part=3, addr=0x831fdb80, load , size=128, unknown  status = IN_PARTITION_DRAM (814243), 

Cache L2_bank_007:
MSHR contents

In Dram Latency Queue (total = 0): 
DRAM[3]: 16 bks, busW=4 BL=8 CL=12, tRRD=2 tCCD=6, tRCD=12 tRAS=28 tRP=12 tRC=40
n_cmd=1062068 n_nop=688524 n_act=44963 n_pre=44947 n_req=141817 n_rd=215366 n_write=68268 bw_util=0.5341
n_activity=1009541 dram_eff=0.5619
bk0: 11602a 814927i bk1: 12074a 798827i bk2: 13780a 793268i bk3: 15850a 746580i bk4: 12112a 802047i bk5: 13128a 778958i bk6: 13274a 770436i bk7: 14134a 744169i bk8: 12928a 807784i bk9: 15448a 755410i bk10: 11848a 815557i bk11: 12096a 806877i bk12: 14184a 774412i bk13: 16178a 741143i bk14: 12710a 790636i bk15: 14020a 760253i 
dram_util_bins: 0 0 0 0 0 0 0 0 0 0
dram_eff_bins: 0 0 0 0 0 0 0 0 0 0
mrqq: max=16 avg=8.52635
Memory Partition 4: 
Cache L2_bank_008:
MSHR contents

Cache L2_bank_009:
MSHR contents

In Dram Latency Queue (total = 0): 
DRAM[4]: 16 bks, busW=4 BL=8 CL=12, tRRD=2 tCCD=6, tRCD=12 tRAS=28 tRP=12 tRC=40
n_cmd=1062068 n_nop=689762 n_act=43954 n_pre=43938 n_req=142207 n_rd=216150 n_write=68264 bw_util=0.5356
n_activity=1008220 dram_eff=0.5642
bk0: 10892a 829745i bk1: 13784a 780141i bk2: 14220a 790127i bk3: 14882a 759785i bk4: 12834a 788563i bk5: 12738a 787094i bk6: 12164a 794119i bk7: 15212a 741006i bk8: 13744a 793925i bk9: 14228a 774594i bk10: 11868a 816724i bk11: 12538a 799087i bk12: 14026a 787904i bk13: 15676a 740605i bk14: 13786a 775382i bk15: 13558a 769223i 
dram_util_bins: 0 0 0 0 0 0 0 0 0 0
dram_eff_bins: 0 0 0 0 0 0 0 0 0 0
mrqq: max=16 avg=8.68272
Memory Partition 5: 
Cache L2_bank_010:
MSHR contents

Cache L2_bank_011:
MSHR contents

In Dram Latency Queue (total = 0): 
DRAM[5]: 16 bks, busW=4 BL=8 CL=12, tRRD=2 tCCD=6, tRCD=12 tRAS=28 tRP=12 tRC=40
n_cmd=1062068 n_nop=691508 n_act=43443 n_pre=43427 n_req=141845 n_rd=215426 n_write=68264 bw_util=0.5342
n_activity=1009294 dram_eff=0.5622
bk0: 12090a 812654i bk1: 12184a 804317i bk2: 15496a 762706i bk3: 13900a 783732i bk4: 13390a 782739i bk5: 11338a 812883i bk6: 13424a 762822i bk7: 13530a 766527i bk8: 15604a 766201i bk9: 13080a 802454i bk10: 12002a 816255i bk11: 11526a 816626i bk12: 16634a 752379i bk13: 14284a 763524i bk14: 14302a 761640i bk15: 12642a 792137i 
dram_util_bins: 0 0 0 0 0 0 0 0 0 0
dram_eff_bins: 0 0 0 0 0 0 0 0 0 0
mrqq: max=16 avg=8.3541

========= L2 cache stats =========
L2_cache_bank[0]: Access = 70096, Miss = 51764, Miss_rate = 0.738, Pending_hits = 1755, Reservation_fails = 6958
L2_cache_bank[1]: Access = 80665, Miss = 56323, Miss_rate = 0.698, Pending_hits = 2565, Reservation_fails = 11852
L2_cache_bank[2]: Access = 80695, Miss = 56476, Miss_rate = 0.700, Pending_hits = 2234, Reservation_fails = 16140
L2_cache_bank[3]: Access = 70066, Miss = 51243, Miss_rate = 0.731, Pending_hits = 1691, Reservation_fails = 2650
L2_cache_bank[4]: Access = 80694, Miss = 56305, Miss_rate = 0.698, Pending_hits = 2486, Reservation_fails = 9105
L2_cache_bank[5]: Access = 70066, Miss = 51759, Miss_rate = 0.739, Pending_hits = 1742, Reservation_fails = 6163
L2_cache_bank[6]: Access = 70096, Miss = 51219, Miss_rate = 0.731, Pending_hits = 1637, Reservation_fails = 1841
L2_cache_bank[7]: Access = 80666, Miss = 56464, Miss_rate = 0.700, Pending_hits = 2284, Reservation_fails = 18989
L2_cache_bank[8]: Access = 70094, Miss = 51767, Miss_rate = 0.739, Pending_hits = 1740, Reservation_fails = 5022
L2_cache_bank[9]: Access = 80666, Miss = 56308, Miss_rate = 0.698, Pending_hits = 2562, Reservation_fails = 10608
L2_cache_bank[10]: Access = 80665, Miss = 56471, Miss_rate = 0.700, Pending_hits = 2189, Reservation_fails = 17774
L2_cache_bank[11]: Access = 70066, Miss = 51242, Miss_rate = 0.731, Pending_hits = 1670, Reservation_fails = 2643
L2_total_cache_accesses = 904535
L2_total_cache_misses = 647341
L2_total_cache_miss_rate = 0.7157
L2_total_cache_pending_hits = 24555
L2_total_cache_reservation_fails = 109745
L2_total_cache_breakdown:
	L2_cache_stats_breakdown[GLOBAL_ACC_R][HIT] = 232535
	L2_cache_stats_breakdown[GLOBAL_ACC_R][HIT_RESERVED] = 24529
	L2_cache_stats_breakdown[GLOBAL_ACC_R][MISS] = 442531
	L2_cache_stats_breakdown[GLOBAL_ACC_R][RESERVATION_FAIL] = 80526
	L2_cache_stats_breakdown[GLOBAL_ACC_W][MISS] = 204800
	L2_cache_stats_breakdown[GLOBAL_ACC_W][RESERVATION_FAIL] = 28680
	L2_cache_stats_breakdown[INST_ACC_R][HIT] = 104
	L2_cache_stats_breakdown[INST_ACC_R][HIT_RESERVED] = 26
	L2_cache_stats_breakdown[INST_ACC_R][MISS] = 10
	L2_cache_stats_breakdown[INST_ACC_R][RESERVATION_FAIL] = 539
L2_cache_data_port_util = 0.095
L2_cache_fill_port_util = 0.265

icnt_total_pkts_mem_to_simt=3703475
icnt_total_pkts_simt_to_mem=1723735
LD_mem_lat_dist  0 0 0 0 0 0 0 0 0 0 0 0 0 0 0 0 0 0 0 0 0 0 0 0 0 0 0
ST_mem_lat_dist  0 0 0 0 0 0 0 0 0 0 0 0 0 0 0 0 0 0 0 0 0 0 0 0 0 0 0
----------------------------Interconnect-DETAILS--------------------------------
Class 0:
Packet latency average = 25.5807
	minimum = 6
	maximum = 472
Network latency average = 19.4294
	minimum = 6
	maximum = 443
Slowest packet = 1104841
Flit latency average = 15.8047
	minimum = 6
	maximum = 443
Slowest flit = 3314025
Fragmentation average = 0.0618119
	minimum = 0
	maximum = 342
Injected packet rate average = 0.0854521
	minimum = 0.0751707 (at node 8)
	maximum = 0.0991031 (at node 16)
Accepted packet rate average = 0.0854521
	minimum = 0.0751707 (at node 8)
	maximum = 0.0991031 (at node 16)
Injected flit rate average = 0.256356
	minimum = 0.14591 (at node 8)
	maximum = 0.411669 (at node 16)
Accepted flit rate average= 0.256356
	minimum = 0.169886 (at node 17)
	maximum = 0.342338 (at node 12)
Injected packet length average = 3
Accepted packet length average = 3
Total in-flight flits = 0 (0 measured)
====== Overall Traffic Statistics ======
====== Traffic class 0 ======
Packet latency average = 25.5807 (1 samples)
	minimum = 6 (1 samples)
	maximum = 472 (1 samples)
Network latency average = 19.4294 (1 samples)
	minimum = 6 (1 samples)
	maximum = 443 (1 samples)
Flit latency average = 15.8047 (1 samples)
	minimum = 6 (1 samples)
	maximum = 443 (1 samples)
Fragmentation average = 0.0618119 (1 samples)
	minimum = 0 (1 samples)
	maximum = 342 (1 samples)
Injected packet rate average = 0.0854521 (1 samples)
	minimum = 0.0751707 (1 samples)
	maximum = 0.0991031 (1 samples)
Accepted packet rate average = 0.0854521 (1 samples)
	minimum = 0.0751707 (1 samples)
	maximum = 0.0991031 (1 samples)
Injected flit rate average = 0.256356 (1 samples)
	minimum = 0.14591 (1 samples)
	maximum = 0.411669 (1 samples)
Accepted flit rate average = 0.256356 (1 samples)
	minimum = 0.169886 (1 samples)
	maximum = 0.342338 (1 samples)
Injected packet size average = 3 (1 samples)
Accepted packet size average = 3 (1 samples)
Hops average = 1 (1 samples)
----------------------------END-of-Interconnect-DETAILS-------------------------


gpgpu_simulation_time = 0 days, 0 hrs, 12 min, 35 sec (755 sec)
gpgpu_simulation_rate = 472725 (inst/sec)
gpgpu_simulation_rate = 1078 (cycle/sec)
GPGPU-Sim: synchronize waiting for inactive GPU simulation
GPGPU-Sim API: Stream Manager State
GPGPU-Sim: detected inactive GPU simulation thread

1x GPU_laplace3d: 753948.750000 (ms) 

Copy u2 to host: 368.372009 (ms) 

1x Gold_laplace3d: 13.265000 (ms) 
 

 rms error = 0.000000 
CUDA_SAFE_CALL( cudaFree(d_u1) );
CUDA_SAFE_CALL( cudaFree(d_u2) );
free(h_u1);
free(h_u2);
free(h_u3);

Press ENTER to exit...
